  53
        -82.40993569
 C          1.1468569897       -2.4340020018        1.9045305235
 C         -0.1093429183       -2.0421622333        0.0747623906
 C          1.0255511872       -1.8754783005       -0.6859536183
 C          2.2603305004       -2.0141009748       -0.0232361077
 C         -1.0572197764        0.8872229771        1.4698259215
 C         -1.2487472136        2.2900855390        2.0539567656
 C         -1.1695725287        3.3344276925        0.9736178021
 C         -0.9856432043        4.6710071719        1.3088183851
 C         -0.9301012124        5.6462608352        0.3322262799
 C         -1.0603702761        5.2912742017       -1.0008568553
 C         -1.2452823034        3.9656687691       -1.3422950225
 C         -1.3028333551        2.9785669319       -0.3652739108
 C         -1.4813613440        1.5369613031       -0.7764688017
 N         -1.8779393538        0.6456828270        0.3000399133
 C         -3.3095693005        0.6700158594        0.5629038919
 C         -4.1074642416       -0.3157435052       -0.3281420105
 O         -3.9117936715       -0.1148755929       -1.6997385073
 C         -3.8468398815       -1.7881701426        0.0644801815
 N         -2.4571312965       -2.0796913780        0.3363190061
 C         -1.4636283769       -1.8682866758       -0.5390942750
 O         -1.6042367938       -1.6055446856       -1.7244985967
 N         -0.0565881771       -2.3257962567        1.3863305391
 N          2.3015272253       -2.2933240446        1.2841749829
 N          3.4270965884       -1.8665623908       -0.6843223650
 C          4.7124042796       -1.9960232487       -0.0751303917
 C          5.7240746152       -0.8701289495       -0.3573593419
 O          6.6267933255       -1.7895329356       -0.9735304241
 C          5.7320420662       -2.8900126839       -0.8040578019
 H          1.2026600568       -2.6619753604        2.9619262078
 H          0.9515678315       -1.6484927786       -1.7367795832
 H         -0.0140905898        0.7627894073        1.1611987176
 H         -1.2755180370        0.1248837579        2.2232800589
 H         -2.2282025437        2.3552678348        2.5395511826
 H         -0.4925741832        2.4828858215        2.8183053074
 H         -0.8841854592        4.9419277979        2.3507308663
 H         -0.7861613183        6.6805966505        0.6080748355
 H         -1.0208355746        6.0479876946       -1.7705012963
 H         -1.3507225152        3.6825102798       -2.3800390297
 H         -0.5303587495        1.1624163767       -1.1789427551
 H         -2.2218501525        1.4704403872       -1.5745025040
 H         -3.7282793669        1.6756490362        0.4108672393
 H         -3.4867550787        0.3824880334        1.6025066166
 H         -5.1731628320       -0.1095514822       -0.1533622902
 H         -3.0849539165       -0.5768497055       -1.9465199428
 H         -4.1867853954       -2.4148809498       -0.7681859326
 H         -4.4214945854       -2.0453984679        0.9545619966
 H         -2.1513197043       -2.2074276270        1.2911507571
 H          3.3901029025       -1.6566923929       -1.6704652411
 H          4.5524256790       -2.2291836162        0.9769618157
 H          5.3761685022       -0.1077120076       -1.0614480571
 H          6.1625679995       -0.3887415945        0.5192075414
 H          6.1756898272       -3.6927913365       -0.2115255360
 H          5.3888538242       -3.2868747966       -1.7647275909
