  53
        -82.41528689
 C          0.8817661226       -0.6895162147       -2.1337926973
 C         -0.2785119922       -1.4555606705       -0.3619433226
 C          0.8748969743       -1.5010711035        0.3873124436
 C          2.0583989158       -1.0706140478       -0.2398146260
 C         -2.7384995963        2.2224349942       -1.0858058076
 C         -1.3400199163        2.1675549737       -1.6923408580
 C         -0.2913505157        2.0797579006       -0.6227470326
 C          1.0340953665        2.3915950078       -0.8991872562
 C          2.0056377291        2.2861434668        0.0769407057
 C          1.6567422228        1.8633913337        1.3490451309
 C          0.3418242797        1.5477468912        1.6312958157
 C         -0.6397027230        1.6507637011        0.6527925948
 C         -2.0637385329        1.3185376355        1.0017279610
 N         -2.8887322868        1.1055606203       -0.1716903273
 C         -4.2677397232        0.8124540865        0.1602836175
 C         -4.4627276029       -0.5748890410        0.7976718377
 O         -5.8099058270       -0.7548153671        1.1623603287
 C         -4.0001331362       -1.7158879702       -0.1358426661
 N         -2.6327117162       -1.5924001924       -0.5599734417
 C         -1.5898574622       -1.8549504166        0.2475340571
 O         -1.6691243294       -2.3700749533        1.3480333534
 N         -0.2846446630       -1.0377781082       -1.6378974679
 N          2.0465349451       -0.6787126765       -1.5178073912
 N          3.2321208491       -1.0506521545        0.4252468611
 C          4.4598087607       -0.5916090312       -0.1396983889
 C          5.6837173056       -1.5095895777        0.0386281440
 O          6.3773312333       -0.4988818294        0.7724877062
 C          5.2756350897        0.4069148535        0.7013830682
 H          0.8941241930       -0.3702323380       -3.1692346925
 H          0.8503062775       -1.8422066852        1.4089634762
 H         -2.8897836450        3.1906042472       -0.5759007997
 H         -3.4853703879        2.1387105662       -1.8792752900
 H         -1.2620462714        1.2757685581       -2.3210728814
 H         -1.1670804226        3.0426187813       -2.3221885934
 H          1.3020467307        2.7174220028       -1.8939413822
 H          3.0321087821        2.5303963288       -0.1518691092
 H          2.4093302407        1.7825201855        2.1198409158
 H          0.0648051978        1.2124753276        2.6207496909
 H         -2.4710295464        2.1397253809        1.6271787249
 H         -2.0707941891        0.4122218317        1.6107536076
 H         -4.8485778376        0.8411269184       -0.7691433261
 H         -4.6999018895        1.5617075056        0.8494697769
 H         -3.9100636717       -0.6471903666        1.7372989950
 H         -6.3571750421       -0.7208725320        0.3684261049
 H         -4.6384651945       -1.7434974407       -1.0239720064
 H         -4.1073371286       -2.6567103837        0.4124683867
 H         -2.4166615395       -1.0280103704       -1.3697368547
 H          3.2325206174       -1.3376350935        1.3921179014
 H          4.2498641403       -0.2832242185       -1.1631565684
 H          5.5019962573       -2.4013128999        0.6463671569
 H          6.2118299745       -1.7880946830       -0.8756345499
 H          5.5470629591        1.3423156687        0.2074010792
 H          4.8596380624        0.6193050932        1.6909807501
