  53
        -82.41314796
 C          0.9691615966       -1.5434794585        1.8777197265
 C         -0.2186302671       -1.4435083882       -0.0351764223
 C          0.9270185385       -1.1712176735       -0.7458805605
 C          2.1237333484       -1.0779033169       -0.0116175473
 C         -2.7056984643        2.0844049063       -1.2681420659
 C         -1.2800703523        1.8947029269       -1.7741276065
 C         -0.3018945555        1.9262986985       -0.6394200731
 C          1.0464968456        2.1732204124       -0.8672809868
 C          1.9553778976        2.1751346743        0.1735863873
 C          1.5210604646        1.9246002642        1.4645626551
 C          0.1818684601        1.6806528710        1.7005679699
 C         -0.7375603507        1.6796784715        0.6587219640
 C         -2.1927074491        1.4421085943        0.9580156113
 N         -2.9535489572        1.1073489406       -0.2263169239
 C         -4.3539644632        0.8790559976        0.0451610351
 C         -4.6281763107       -0.5146031004        0.6294549151
 O         -6.0303460973       -0.6627861019        0.6295527048
 C         -3.9442256633       -1.6248387555       -0.1946290637
 N         -2.5525381556       -1.7522187552        0.1312683245
 C         -1.5494282326       -1.4978416926       -0.7261768495
 O         -1.6700357121       -1.3451839340       -1.9264507318
 N         -0.2052300402       -1.6347673276        1.2945097631
 N          2.1282442889       -1.2771104155        1.3103241463
 N          3.2931991519       -0.7949351216       -0.6214648376
 C          4.5343821396       -0.6432304609        0.0664821504
 C          5.4021206823        0.5630946175       -0.3335562430
 O          6.4740135853       -0.2939236851       -0.7280918941
 C          5.7218503620       -1.4769176035       -0.4523845367
 H          0.9931141461       -1.7044146219        2.9487703781
 H          0.8887700264       -1.0238123052       -1.8122873918
 H         -2.8444503012        3.1178543616       -0.9006856910
 H         -3.4064120229        1.9153245388       -2.0875000814
 H         -1.2214130606        0.9161319975       -2.2589906962
 H         -1.0330616283        2.6588255519       -2.5138921770
 H          1.3800742489        2.3685398804       -1.8772049915
 H          3.0003084047        2.3734235731       -0.0159722946
 H          2.2251610405        1.9157964910        2.2828918981
 H         -0.1605672513        1.4841465804        2.7069647572
 H         -2.5985704406        2.3540833321        1.4470335625
 H         -2.2763329738        0.6243413524        1.6790998386
 H         -4.9074780511        0.9304534824       -0.8946497346
 H         -4.7854644454        1.6319329635        0.7280844230
 H         -4.2513490752       -0.5725646450        1.6650827918
 H         -6.2591515177       -1.5340016216        0.9725723517
 H         -4.0079574052       -1.3997144955       -1.2611553638
 H         -4.4573158122       -2.5769977021       -0.0003051985
 H         -2.2754003981       -1.8296219007        1.1019762901
 H          3.2809573840       -0.6421942078       -1.6183163977
 H          4.3293339577       -0.7418311414        1.1318191175
 H          5.0161123502        1.1414401091       -1.1793521469
 H          5.6921310412        1.2380780419        0.4745454856
 H          6.2171466655       -2.1172443390        0.2801261480
 H          5.5143811604       -2.0480022242       -1.3626441753
