  53
        -82.41029229
 C          1.4514969986        0.3509173067       -0.0614861147
 C          0.1929438520       -1.4125222477       -0.6848275940
 C          1.3226266482       -2.1912050328       -0.8096884997
 C          2.5534532337       -1.5753469300       -0.5180548341
 C         -2.9484517792        1.1240752281        1.8969520614
 C         -1.4638149669        1.2828499328        2.1997103991
 C         -0.9106389717        2.5020447802        1.5238712063
 C          0.2749694216        3.0798951108        1.9608608256
 C          0.8034202512        4.1854562348        1.3217428457
 C          0.1446652750        4.7273873244        0.2302727800
 C         -1.0360013280        4.1598113023       -0.2088775341
 C         -1.5714978706        3.0475720655        0.4292308381
 C         -2.8796475115        2.4818409293       -0.0550765178
 N         -3.1347681745        1.1474801667        0.4563466958
 C         -4.4271003341        0.6310842586        0.0399888958
 C         -4.4481225764       -0.9088807192       -0.0112409385
 O         -5.7631817606       -1.3807072502       -0.1783063250
 C         -3.5286440910       -1.4343747115       -1.1250798794
 N         -2.1516021817       -1.1053745519       -0.8783591605
 C         -1.1548342280       -1.9933188424       -1.0016457030
 O         -1.2911701433       -3.1511331490       -1.3574193554
 N          0.2503144857       -0.1282212676       -0.3009640996
 N          2.6004607379       -0.2913493624       -0.1461293767
 N          3.7141947040       -2.2602778925       -0.6053571229
 C          4.9961238122       -1.6948567209       -0.3318623328
 C          6.0913888926       -1.9216823608       -1.3903575670
 O          6.9059953379       -2.6194886143       -0.4468678512
 C          5.9260389598       -2.5088856775        0.5865119486
 H          1.5059676444        1.3891166100        0.2418282429
 H          1.2443967017       -3.2200513284       -1.1206061394
 H         -3.3071256402        0.1716992951        2.2897842037
 H         -3.5221187794        1.9321385157        2.3847249976
 H         -1.3013401079        1.3370620684        3.2778732943
 H         -0.9290785794        0.4091782948        1.8166163222
 H          0.7857034833        2.6520405911        2.8121060860
 H          1.7263046506        4.6238838687        1.6718173579
 H          0.5508891692        5.5902886112       -0.2762479475
 H         -1.5537085173        4.5824239524       -1.0587143318
 H         -2.8673927849        2.4349162889       -1.1488875934
 H         -3.6861318984        3.1838878782        0.2386735849
 H         -4.6441330442        1.0074066386       -0.9654013054
 H         -5.2399357393        0.9685294383        0.7054603945
 H         -4.1211577203       -1.3217589368        0.9472924751
 H         -6.0875540220       -1.1021805361       -1.0429489361
 H         -3.8502691811       -1.0050591851       -2.0858416986
 H         -3.6077535149       -2.5240735680       -1.1923959261
 H         -1.9553552088       -0.1768672308       -0.5081595983
 H          3.6734874631       -3.2257920934       -0.8946799903
 H          4.8376304451       -0.6577763601       -0.0379481892
 H          5.7948039301       -2.5643835370       -2.2252437688
 H          6.5824053477       -1.0244494743       -1.7727686113
 H          6.3118783649       -1.9863394093        1.4643014672
 H          5.5346734246       -3.4874709480        0.8820215601
