  53
        -82.41031784
 C          1.8132882582       -0.1935640804        0.8212721778
 C          0.2874898509       -1.5960460898       -0.0677215486
 C          1.2853359114       -2.2926808341       -0.7127372662
 C          2.6035885148       -1.8367345564       -0.5227211743
 C         -2.3443240995        1.7455473747       -0.9459554583
 C         -0.9651982763        2.1340155862       -0.4272411736
 C         -1.0600168838        3.0552418889        0.7521450125
 C          0.0419727057        3.7970384000        1.1604597888
 C         -0.0318426493        4.6329007992        2.2579152005
 C         -1.2189379784        4.7351289301        2.9648764118
 C         -2.3175959960        3.9969135834        2.5689979396
 C         -2.2484649488        3.1526052110        1.4671377370
 C         -3.4740535527        2.3886971938        1.0454553471
 N         -3.1662834402        1.2803879520        0.1599931133
 C         -4.3731605028        0.6125731370       -0.2968763195
 C         -4.1514755734       -0.8680450334       -0.6444154229
 O         -3.4659565743       -0.9847322171       -1.8676940723
 C         -3.4157521592       -1.6103191712        0.4886565899
 N         -2.0067138558       -1.3188953693        0.5220865494
 C         -1.1384513575       -2.0254131498       -0.2158858210
 O         -1.4554716230       -2.9728977699       -0.9234038033
 N          0.5466682537       -0.5309470116        0.7066392826
 N          2.8509893125       -0.7784353316        0.2572739081
 N          3.6459386051       -2.4528003895       -1.1180829853
 C          5.0040385216       -2.0308844224       -0.9878435194
 C          5.7928072165       -1.8361901971       -2.2963202486
 O          6.7300141586       -2.8468024662       -1.9212057565
 C          6.0399204582       -3.1333716338       -0.7038698150
 H          2.0296761485        0.6650124904        1.4449830338
 H          1.0473071876       -3.1439605642       -1.3290597163
 H         -2.8140819214        2.6129353888       -1.4447329010
 H         -2.2607931307        0.9393659812       -1.6750169025
 H         -0.4286747913        1.2339713723       -0.1130134375
 H         -0.3868205079        2.6029121147       -1.2264509064
 H          0.9651250676        3.7142833827        0.6039945191
 H          0.8318930193        5.2057052470        2.5622066856
 H         -1.2865745539        5.3876376851        3.8228623549
 H         -3.2457028055        4.0737100398        3.1185309945
 H         -4.1728734545        3.1036310514        0.5647577773
 H         -3.9749479445        1.9915994160        1.9349591808
 H         -4.8057649745        1.1104653270       -1.1791805537
 H         -5.1135685068        0.6449978863        0.5067871051
 H         -5.1526095360       -1.3266988130       -0.7469062459
 H         -3.0222993211       -1.8451810424       -1.8916635114
 H         -3.5145776085       -2.6888350475        0.3252798259
 H         -3.8592885595       -1.3454701726        1.4492848398
 H         -1.7062197749       -0.4404086808        0.9229182778
 H          3.4513977868       -3.2424439853       -1.7151035361
 H          5.0180968858       -1.1843277341       -0.3023057266
 H          5.2461210377       -2.1054121837       -3.2055318713
 H          6.2693174198       -0.8625395817       -2.4279694336
 H          6.6731865393       -2.9814564944        0.1726735594
 H          5.6357958019       -4.1505412583       -0.6951174649
