  53
        -82.41375200
 C          0.8753410203       -1.1235109671       -2.0536884898
 C         -0.3602646881       -1.4431270270       -0.1955813781
 C          0.7569488604       -1.2726149535        0.5886269075
 C          1.9677645728       -1.0037336338       -0.0764725432
 C         -2.6242248442        1.7878218334        1.1091546439
 C         -1.2381806387        1.6234771397        1.7201438160
 C         -0.1737298568        1.8743527873        0.6934512642
 C          1.1321141340        2.1507598861        1.0798701751
 C          2.1214806208        2.3712058589        0.1407935123
 C          1.8122686747        2.3158114170       -1.2076350784
 C          0.5167409714        2.0416043567       -1.6015006043
 C         -0.4825924457        1.8186044247       -0.6625449984
 C         -1.8859356234        1.5391385064       -1.1304285653
 N         -2.6948709510        0.9618766086       -0.0801619943
 C         -4.0469585016        0.6350603513       -0.4855516583
 C         -4.5951791234       -0.5476552492        0.3384302193
 O         -6.0018276519       -0.5462094599        0.3726474159
 C         -4.0657045508       -1.9024358263       -0.1863977696
 N         -2.6616871770       -1.8745867912       -0.4983995397
 C         -1.7024820229       -1.6942374013        0.4282839328
 O         -1.8633089849       -1.7570886820        1.6318131363
 N         -0.3074823274       -1.3692782279       -1.5359626884
 N          2.0107095202       -0.9390168648       -1.4108196432
 N          3.1121301006       -0.8113370896        0.6111413299
 C          4.3723482978       -0.5396332142       -0.0013485389
 C          5.5288542180       -1.5020943265        0.3346351888
 O          6.2942898842       -0.4364031499        0.8999506330
 C          5.2546217539        0.5181688137        0.6828717208
 H          0.9308761835       -1.0694014123       -3.1343926238
 H          0.6901978274       -1.3411946657        1.6618009374
 H         -3.3820313852        1.4622020622        1.8220764691
 H         -2.8120260767        2.8507984662        0.8688259342
 H         -1.1128800418        2.2984119781        2.5693806671
 H         -1.1479135016        0.5971022467        2.0857633541
 H          1.3676715706        2.1958703207        2.1342560377
 H          3.1306367366        2.5905719960        0.4569497081
 H          2.5787196392        2.4825749722       -1.9492256553
 H          0.2715424350        1.9958692340       -2.6533001950
 H         -1.8451514148        0.8370381711       -1.9696028214
 H         -2.3210378071        2.4888804279       -1.5074906105
 H         -4.0446762944        0.3662889278       -1.5470247541
 H         -4.7338535483        1.4902125994       -0.3571635695
 H         -4.2804683624       -0.4350654322        1.3783328380
 H         -6.3372527430       -0.6401249026       -0.5270325126
 H         -4.6133055150       -2.1824968744       -1.0912230391
 H         -4.2435755958       -2.6612563820        0.5810281440
 H         -2.3620132506       -1.6816988196       -1.4446729675
 H          3.0774969416       -0.8796629306        1.6167321027
 H          4.1901930360       -0.3868639269       -1.0643749997
 H          5.2851726062       -2.2668701826        1.0785190419
 H          6.0330758853       -1.9630940046       -0.5169830836
 H          5.5856062853        1.3476747507        0.0542877909
 H          4.8558633257        0.9035951662        1.6266907998
