  53
        -82.41129608
 C          0.6371398324       -1.1574079954       -1.9283346235
 C         -0.3432064034       -1.4007240819        0.0875576094
 C          0.8773652808       -1.2754150167        0.7082354754
 C          1.9958073222       -1.0719837334       -0.1212642506
 C         -2.5288395604        1.2893084502       -1.2442757096
 C         -1.5839815768        2.4910825942       -1.3775335350
 C         -0.3888221631        2.2727600298       -0.5076140454
 C          0.9223014471        2.4464524888       -0.9172728572
 C          1.9576231340        2.2488289877       -0.0199693043
 C          1.6825547932        1.8694042827        1.2832083892
 C          0.3748399061        1.6637151417        1.6887835195
 C         -0.6631663209        1.8629439051        0.7942033512
 C         -2.1029305991        1.6759473312        1.1558190440
 N         -2.8057211247        0.9088343294        0.1366257674
 C         -4.2084501918        0.7245449711        0.4456199205
 C         -4.7758800087       -0.6342820575       -0.0173358901
 O         -4.8656068955       -0.7478999090       -1.4171819328
 C         -4.0139449733       -1.8308941293        0.5922612175
 N         -2.6528523395       -1.9085843058        0.1366073993
 C         -1.6005626621       -1.5441278614        0.8919442298
 O         -1.6296062218       -1.3759368371        2.0960829446
 N         -0.4717872414       -1.3548680972       -1.2497348440
 N          1.8554042976       -1.0095317508       -1.4492846915
 N          3.2339017004       -0.9456929397        0.3991687271
 C          4.4052050016       -0.6986952376       -0.3781613198
 C          5.6241326312       -1.5923122265       -0.0818131290
 O          6.4063106325       -0.4585460519        0.2969342621
 C          5.3201058886        0.4462162356        0.0939887988
 H          0.5440901679       -1.1102570307       -3.0068790369
 H          0.9524044213       -1.3214385298        1.7816108340
 H         -3.4654742337        1.5192713239       -1.7687835932
 H         -2.0447102295        0.4373190260       -1.7443139833
 H         -1.3017660244        2.6188608324       -2.4232378824
 H         -2.1030924925        3.3981648433       -1.0504797164
 H          1.1339189577        2.7448961052       -1.9340149199
 H          2.9799712330        2.3925030281       -0.3377978857
 H          2.4916489970        1.7303421391        1.9862609104
 H          0.1561644163        1.3469722954        2.6977788527
 H         -2.5632505144        2.6733375664        1.3024252807
 H         -2.1795093303        1.1232512108        2.0956448306
 H         -4.8366552345        1.5186312487        0.0035529206
 H         -4.3286375766        0.7657393852        1.5297596690
 H         -5.8142696138       -0.6888513667        0.3311229735
 H         -3.9744169193       -0.6939674564       -1.7812131882
 H         -4.5398871133       -2.7512668279        0.3180837575
 H         -3.9847827424       -1.7372596313        1.6791803984
 H         -2.4734115911       -1.9595870012       -0.8572935782
 H          3.3275408422       -0.9686921131        1.4030920268
 H          4.0987880073       -0.6545069668       -1.4225850550
 H          5.4884795837       -2.2894192963        0.7508423131
 H          6.0521969672       -2.1190378535       -0.9371717268
 H          5.5574863993        1.2085587387       -0.6512597314
 H          5.0109595696        0.9256396795        1.0278922551
