  53
        -82.41007144
 C          1.2477409616        0.5658202503       -0.9769463035
 C          0.0152409488       -1.3175842777       -0.8402201009
 C          1.1497405765       -2.0600823988       -0.5982668932
 C          2.3679308372       -1.3568291657       -0.5504165826
 C         -2.6813784871        0.9360432681        1.9638148836
 C         -1.1628754679        0.9455735921        2.0903628873
 C         -0.5760025532        2.1323739660        1.3836224625
 C          0.7162385508        2.5550015804        1.6684743534
 C          1.2703590929        3.6365568953        1.0108762271
 C          0.5299064441        4.3101014648        0.0532832905
 C         -0.7554341719        3.8941464285       -0.2375596312
 C         -1.3177784700        2.8070558130        0.4199155508
 C         -2.7317710825        2.4009840085        0.0981280043
 N         -3.0275421084        1.0591057887        0.5598702157
 C         -4.3778650108        0.6271004524        0.2530029605
 C         -4.4823030676       -0.9083358646        0.1585635015
 O         -5.8290756350       -1.3136321406        0.1255760530
 C         -3.7177104316       -1.4479027053       -1.0657550928
 N         -2.3265300879       -1.0964782408       -1.0430970273
 C         -1.3290145160       -1.9852433482       -0.9163141476
 O         -1.4584350340       -3.1958283311       -0.8950605426
 N          0.0577236938        0.0107718765       -1.0275148676
 N          2.3999276744       -0.0345039779       -0.7472667078
 N          3.5321110196       -1.9959497390       -0.3036131668
 C          4.8037123639       -1.3481741807       -0.2654257969
 C          5.9262729924       -1.9787755251       -1.1103539102
 O          6.7196111622       -2.2099819789        0.0549996449
 C          5.7146210383       -1.6913965904        0.9274838600
 H          1.2924041631        1.6349459136       -1.1395039328
 H          1.0869158414       -3.1268342772       -0.4584722593
 H         -3.0791850760       -0.0005757107        2.3557850839
 H         -3.1133213053        1.7636241098        2.5544624384
 H         -0.8710650680        0.9483361819        3.1426975631
 H         -0.7646348116        0.0346089116        1.6338615163
 H          1.2904520975        2.0249389311        2.4151987737
 H          2.2763202442        3.9535273813        1.2422584739
 H          0.9547390098        5.1560763043       -0.4666019983
 H         -1.3351048087        4.4175535852       -0.9850775243
 H         -2.8772629111        2.4378102440       -0.9862463626
 H         -3.4182469462        3.1453178210        0.5512762376
 H         -4.6666206626        1.0513758399       -0.7146419857
 H         -5.1074407112        0.9772061762        1.0035945111
 H         -4.0730268822       -1.3674966752        1.0626197690
 H         -6.2353694059       -0.9825998031       -0.6842973077
 H         -4.1800791283       -1.0464296429       -1.9782633623
 H         -3.7871824093       -2.5393809400       -1.0864964439
 H         -2.0881267056       -0.1196834579       -0.9002126131
 H          3.5056394507       -2.9963372782       -0.1765338705
 H          4.6314660452       -0.2856037330       -0.4338041881
 H          5.6536787440       -2.9143336968       -1.6088313087
 H          6.4231837961       -1.3145605524       -1.8204478467
 H          6.0771768306       -0.8443980480        1.5137045852
 H          5.3205126695       -2.4621871210        1.5972989784
