  53
        -82.41008027
 C          1.6559638292       -1.4077170062        1.7503118302
 C          0.3456644524       -1.9173179180       -0.0110552341
 C          1.4470149468       -2.3132017277       -0.7357330855
 C          2.6962086043       -2.2218564326       -0.0909373041
 C         -3.8116584048        1.7140678217        1.2502701366
 C         -3.9658908170        3.1603838733        0.7601007943
 C         -2.6443315249        3.8784399234        0.6888814853
 C         -2.6161103287        5.2485681588        0.4549061627
 C         -1.4172255325        5.9282828369        0.3595292467
 C         -0.2229450258        5.2390619581        0.4931414323
 C         -0.2410987090        3.8765208479        0.7215021390
 C         -1.4431500627        3.1877128178        0.8204877788
 C         -1.4484533788        1.7044868789        1.0979750977
 N         -2.6641352499        1.0259050617        0.6875657799
 C         -2.7510567923        0.7914432911       -0.7435448706
 C         -3.6725512303       -0.4047272566       -1.0615805375
 O         -3.5464895936       -0.7956712939       -2.4007101943
 C         -3.3899536171       -1.5802100574       -0.0949840525
 N         -1.9955048210       -1.7080212915        0.2601777408
 C         -1.0211855409       -1.9554531708       -0.6232405731
 O         -1.1898076265       -2.1975628875       -1.8112941796
 N          0.4424293303       -1.4567501850        1.2467406807
 N          2.7817600435       -1.7602242143        1.1615801114
 N          3.8309295039       -2.5949925692       -0.7166420410
 C          5.1303965596       -2.5216482285       -0.1279432276
 C          6.2269906162       -1.8397968243       -0.9667284051
 O          6.9967034819       -3.0424948405       -1.0002848994
 C          6.0153084203       -3.7740012252       -0.2642293812
 H          1.7468733466       -1.0340755501        2.7627085022
 H          1.3391295524       -2.6727213527       -1.7458729107
 H         -3.6790684205        1.7114895735        2.3366609246
 H         -4.7140682572        1.1443905400        1.0191982042
 H         -4.4214664327        3.1687373112       -0.2351931387
 H         -4.6445114912        3.6997676648        1.4248723905
 H         -3.5501311599        5.7827267237        0.3492049716
 H         -1.4124636607        6.9932518306        0.1797818963
 H          0.7184984281        5.7627419180        0.4162845920
 H          0.6870288696        3.3315113332        0.8252325273
 H         -1.3393640751        1.5498747424        2.1802938199
 H         -0.5915714385        1.2248272964        0.6178821431
 H         -1.7513541724        0.5473080307       -1.1128121502
 H         -3.0971402116        1.6626850887       -1.3161491735
 H         -4.7223277216       -0.1102723353       -0.9480255270
 H         -2.7108384473       -1.2926626964       -2.4884811094
 H         -3.7163102185       -2.5001319377       -0.5919669817
 H         -3.9522864928       -1.4490466080        0.8276279112
 H         -1.6908126888       -1.3627872093        1.1603489426
 H          3.7608650098       -2.9321457310       -1.6650611351
 H          5.0087565576       -2.1398898075        0.8851101355
 H          5.9123418608       -1.5297179307       -1.9681786184
 H          6.7631849115       -1.0224988126       -0.4798740901
 H          6.4177800283       -4.1794275992        0.6664298325
 H          5.5782127512       -4.5816039963       -0.8598161328
