  53
        -82.40982684
 C          0.7956109689       -1.7777820088        1.9059880753
 C         -0.2813098438       -1.5262268007       -0.0560315462
 C          0.8999119620       -1.1825579658       -0.6729519838
 C          2.0525427239       -1.1464596152        0.1325234263
 C         -3.0395049024        1.8483930565       -0.5292755395
 C         -1.8734161821        1.9281107126       -1.5103547834
 C         -0.5541550768        2.0179739223       -0.8028151002
 C          0.5959294420        2.3662014539       -1.5020184610
 C          1.8234311826        2.4226223249       -0.8702142714
 C          1.9176960762        2.1322006486        0.4812693285
 C          0.7813235917        1.7801027495        1.1833474114
 C         -0.4540804329        1.7155313875        0.5513865836
 C         -1.6716572517        1.3273331844        1.3420014041
 N         -2.7295375208        0.8545085551        0.4785574034
 C         -3.8676692369        0.3550392722        1.2114191362
 C         -4.7609418641       -0.6089197855        0.4004236461
 O         -5.6848664407        0.0653165119       -0.4279159601
 C         -3.9732533768       -1.5489426079       -0.5353751349
 N         -2.6382412963       -1.8415993312       -0.0947516540
 C         -1.5637124636       -1.4955198787       -0.8275926463
 O         -1.6008762144       -1.1874505930       -2.0046272172
 N         -0.3430269943       -1.8312821685        1.2506748215
 N          1.9822203111       -1.4530870638        1.4323152438
 N          3.2531885179       -0.8156211062       -0.3860150751
 C          4.4547651992       -0.7219008083        0.3784415166
 C          5.2996105805        0.5509517588        0.1882049430
 O          6.4107887548       -0.2143626793       -0.2803185627
 C          5.6895014510       -1.4443506995       -0.1928764802
 H          0.7602565366       -2.0241132016        2.9608745311
 H          0.9165749296       -0.9344822768       -1.7209142478
 H         -3.2188547236        2.8392567996       -0.0687495383
 H         -3.9432185221        1.5458012822       -1.0584808868
 H         -1.8647294425        1.0194986919       -2.1187493071
 H         -2.0028620172        2.7803882155       -2.1808877423
 H          0.5194643698        2.5937061701       -2.5558843093
 H          2.7061854872        2.7008149072       -1.4287556644
 H          2.8718920764        2.1764704858        0.9853721675
 H          0.8502292924        1.5440197808        2.2361612827
 H         -1.9966634784        2.2021444640        1.9454324148
 H         -1.4033844083        0.5275550858        2.0399028968
 H         -4.5099464302        1.1726409164        1.5986881244
 H         -3.4882246007       -0.1938804826        2.0779246837
 H         -5.3196585852       -1.2123054410        1.1370651978
 H         -6.2270869456        0.6522194830        0.1114801998
 H         -3.8834617532       -1.0591216075       -1.5086078038
 H         -4.5451845962       -2.4731585383       -0.6679776948
 H         -2.4589591047       -2.0353683666        0.8803447035
 H          3.2871291504       -0.5484018482       -1.3579585988
 H          4.2050437224       -0.9699796869        1.4094336276
 H          4.9258632598        1.2356134901       -0.5792662643
 H          5.5410524011        1.1085871023        1.0957962495
 H          6.1779478427       -2.1602981184        0.4713215003
 H          5.5374771078       -1.8976163314       -1.1772794260
