  53
        -82.41118724
 C          2.1893980188       -1.3691706653        1.5043414648
 C          0.6386823755       -1.9386164735       -0.0289382637
 C          1.6138057870       -2.4746527332       -0.8390775062
 C          2.9374640159       -2.4174230908       -0.3602507776
 C         -0.8988186954        1.8012843847        1.1447508755
 C         -0.7351583174        3.1672390956        0.4703724517
 C         -1.9462139557        4.0343660996        0.6880486526
 C         -1.8868576205        5.3930779176        0.3999427646
 C         -2.9927324573        6.2038190138        0.5670286198
 C         -4.1815039672        5.6593425288        1.0249741898
 C         -4.2507025170        4.3095347190        1.3109302857
 C         -3.1419945896        3.4886593345        1.1462753223
 C         -3.2339408310        2.0213322057        1.4943474313
 N         -2.1965834212        1.1992886619        0.8971305420
 C         -2.4460743236        0.9010483350       -0.5037768625
 C         -3.4236628757       -0.2841450595       -0.6569002491
 O         -3.4614056486       -0.7415963394       -1.9802818917
 C         -3.0610623072       -1.4175126509        0.3313142521
 N         -1.6376330885       -1.5855388282        0.5143727798
 C         -0.7948363728       -1.9356193188       -0.4641921512
 O         -1.1225716794       -2.2364936506       -1.6045581421
 N          0.9209217904       -1.3764522224        1.1576689888
 N          3.2081377791       -1.8532994224        0.8220553374
 N          3.9595240190       -2.9251760510       -1.0783213936
 C          5.3239261835       -2.9001814967       -0.6561961070
 C          6.3515390902       -2.3928325559       -1.6843665395
 O          7.0305696589       -3.6493647779       -1.6765723625
 C          6.0988271707       -4.2263959645       -0.7606398629
 H          2.4293556091       -0.9132666620        2.4568541909
 H          1.3578048325       -2.9134719581       -1.7894073481
 H         -0.1197324280        1.1121832572        0.8070493882
 H         -0.8004793353        1.9148962484        2.2285132387
 H          0.1562462661        3.6684125771        0.8542270595
 H         -0.5924675366        3.0297599395       -0.6065899961
 H         -0.9574957533        5.8133682202        0.0413632192
 H         -2.9298792133        7.2578428031        0.3399202645
 H         -5.0515894783        6.2856018258        1.1555435988
 H         -5.1760591370        3.8786112993        1.6671821280
 H         -4.2095023659        1.6293439013        1.2000889217
 H         -3.1523919422        1.9140293020        2.5845147451
 H         -1.5012862868        0.6158163561       -0.9742349993
 H         -2.8492102843        1.7580981490       -1.0622311206
 H         -4.4466641789        0.0447268662       -0.4393733115
 H         -2.6638093221       -1.2834759622       -2.1328627537
 H         -3.4809069786       -2.3481784106       -0.0652687409
 H         -3.4948343318       -1.2110518130        1.3078661831
 H         -1.2089598417       -1.2086615088        1.3487907491
 H          3.7491358694       -3.3458234145       -1.9709566944
 H          5.3553842781       -2.4136868738        0.3180317292
 H          5.9368413875       -2.1605877269       -2.6703391064
 H          6.9960675503       -1.5754951391       -1.3542892122
 H          6.5831367854       -4.5716570607        0.1551069116
 H          5.5386841126       -5.0498438037       -1.2147647381
