  53
        -82.41040700
 C          2.3950090221        0.3598399750        0.7470122767
 C          0.9116981453       -1.1747794018        0.0289673094
 C          1.9161959696       -1.8808212648       -0.5986091857
 C          3.2167218241       -1.3569833780       -0.4909007099
 C         -1.3141029787        2.1703076564       -0.8399708779
 C         -0.6676738665        2.8884927905        0.3407153702
 C         -1.6992368116        3.5596265258        1.2003546558
 C         -1.3288778357        4.5464360295        2.1060937904
 C         -2.2695285950        5.1625765119        2.9090184316
 C         -3.6016510849        4.7948748089        2.8126404894
 C         -3.9780541619        3.8123671380        1.9170121445
 C         -3.0363610850        3.1874414634        1.1083078123
 C         -3.4818830090        2.1402349139        0.1243215603
 N         -2.3787369939        1.3232286364       -0.3373653141
 C         -2.7986872763        0.2882875330       -1.2595782310
 C         -3.4746813570       -0.8955815416       -0.5332539337
 O         -3.5185525754       -2.0277324368       -1.3564734060
 C         -2.7595497760       -1.1969211146        0.8062961106
 N         -1.3315760207       -0.9871338038        0.7592862233
 C         -0.5045416100       -1.6576928197       -0.0496986396
 O         -0.8297338094       -2.5837940557       -0.7823619922
 N          1.1413479817       -0.0425029893        0.7096946988
 N          3.4356291309       -0.2263403147        0.1948415098
 N          4.3117040467       -1.9047415696       -1.0609483189
 C          4.3778296475       -3.1619472375       -1.7346750532
 C          4.8598834748       -4.3807169643       -0.9157795891
 O          5.9865043305       -4.5502294027       -1.7773564795
 C          5.6517996247       -3.4026528103       -2.5568869523
 H          2.5966237955        1.2728639403        1.2937758778
 H          1.6792938407       -2.7889742008       -1.1252847414
 H         -1.6893961822        2.9078453157       -1.5716485050
 H         -0.5669924983        1.5477750830       -1.3381215612
 H         -0.1215266269        2.1537779983        0.9400794283
 H          0.0557306667        3.6229273509       -0.0200462339
 H         -0.2887025991        4.8321581004        2.1757416732
 H         -1.9670253030        5.9291056430        3.6070791231
 H         -4.3438984466        5.2722322162        3.4350481067
 H         -5.0165973742        3.5223505735        1.8385338397
 H         -3.9837024024        2.6495496850       -0.7247717796
 H         -4.2258800855        1.4929703407        0.5958760926
 H         -1.9122094687       -0.1026607903       -1.7666895986
 H         -3.4826186712        0.6635381252       -2.0389422553
 H         -4.5232186132       -0.6582543874       -0.3192850533
 H         -2.6219896600       -2.4148246439       -1.3754737735
 H         -2.9572558045       -2.2459893812        1.0521987340
 H         -3.1561434193       -0.5621560004        1.5967325731
 H         -0.9584159617       -0.1385596965        1.1625652768
 H          5.1837486223       -1.4666734011       -0.7980542433
 H          3.4527795480       -3.3332150800       -2.2854548703
 H          5.1618237220       -4.1473771763        0.1095646867
 H          4.2037301552       -5.2535033166       -0.9202915589
 H          5.5035308856       -3.6510589377       -3.6101714990
 H          6.4075113957       -2.6158257417       -2.4679338097
