  53
        -82.40991934
 C          1.2221637797       -2.3945475721        1.8992386327
 C         -0.0317944762       -2.0040877352        0.0674610160
 C          1.1039295272       -1.8575251509       -0.6961190067
 C          2.3378040343       -2.0141422904       -0.0355208401
 C         -1.0772829156        0.9425120212        1.4735172974
 C         -1.3207742563        2.3296572927        2.0764016212
 C         -1.3005078751        3.3913446926        1.0099828399
 C         -1.1898452437        4.7310730778        1.3644838040
 C         -1.1922303542        5.7222011740        0.4024063779
 C         -1.3076641700        5.3803348384       -0.9354599406
 C         -1.4199471596        4.0516790011       -1.2960927294
 C         -1.4187287134        3.0486620730       -0.3337660059
 C         -1.5223143675        1.6052881043       -0.7637927198
 N         -1.8876837278        0.6855519567        0.2998384064
 C         -3.3195898116        0.6586257259        0.5599577131
 C         -4.0784122464       -0.3461556940       -0.3434617925
 O         -3.8753890607       -0.1337360821       -1.7121372316
 C         -3.7746841676       -1.8110307665        0.0457283820
 N         -2.3785125965       -2.0619779041        0.3240621408
 C         -1.3862285887       -1.8352962082       -0.5481833309
 O         -1.5271355355       -1.5666537830       -1.7320955283
 N          0.0194147283       -2.2762095787        1.3815707650
 N          2.3773921005       -2.2812363290        1.2744962490
 N          3.5056905000       -1.8929472725       -0.7001416222
 C          4.7880906599       -2.0839318772       -0.1006674939
 C          5.8667536422       -1.0408657085       -0.4429879113
 O          6.6968338608       -2.0420737453       -1.0333973323
 C          5.7366705378       -3.0739592834       -0.8021784150
 H          1.2766262197       -2.6108389033        2.9591645098
 H          1.0312553249       -1.6377797381       -1.7485690931
 H         -0.0303350158        0.8595547590        1.1640689500
 H         -1.2678077444        0.1631434919        2.2170600983
 H         -2.2959337494        2.3477717311        2.5746646574
 H         -0.5640999554        2.5452989581        2.8342098847
 H         -1.1006117416        4.9920225835        2.4100858389
 H         -1.1054895918        6.7588155081        0.6933063579
 H         -1.3133586063        6.1494366428       -1.6937926816
 H         -1.5138820327        3.7783995531       -2.3375788818
 H         -0.5504274909        1.2806248987       -1.1592658197
 H         -2.2507243423        1.5123608224       -1.5702160988
 H         -3.7724317262        1.6506590913        0.4164641289
 H         -3.4896462502        0.3550798323        1.5961971335
 H         -5.1517996003       -0.1749526677       -0.1784352727
 H         -3.0322072363       -0.5687982220       -1.9524553918
 H         -4.0908113119       -2.4448644991       -0.7909590486
 H         -4.3460511018       -2.0886821897        0.9318146625
 H         -2.0738234744       -2.1888164689        1.2793917713
 H          3.4700685317       -1.7147364711       -1.6925665413
 H          4.6276515180       -2.2631337855        0.9618493065
 H          5.5587707521       -0.2853698156       -1.1725026212
 H          6.3505145399       -0.5556934031        0.4073256135
 H          6.1375318165       -3.8761490516       -0.1791361146
 H          5.3536425335       -3.4907908984       -1.7389848434
