  53
        -82.41520899
 C          0.8892652242       -0.5034017261       -2.1096280814
 C         -0.2846594395       -1.4743944402       -0.4513498864
 C          0.8610566940       -1.6033950058        0.3001869215
 C          2.0473729748       -1.0927552880       -0.2579517141
 C         -2.8011309306        2.2914924711       -0.9168131503
 C         -1.4413698837        2.2939565854       -1.6083040260
 C         -0.3304696347        2.1669203849       -0.6081197278
 C          0.9680146820        2.5392901196       -0.9326809685
 C          1.9959692591        2.3951512428       -0.0214176129
 C          1.7317546194        1.8722091874        1.2334683309
 C          0.4434585425        1.4980303238        1.5635546307
 C         -0.5950091468        1.6405152732        0.6509902343
 C         -1.9890616692        1.2483017798        1.0559285920
 N         -2.8875829535        1.1131403765       -0.0742341759
 C         -4.2420114312        0.7917159985        0.3274277030
 C         -4.3985389890       -0.6482738899        0.8331286126
 O         -5.7573045991       -0.7949407813        1.1849620178
 C         -4.0041398293       -1.6861649825       -0.2407867734
 N         -2.6397231410       -1.5524659326       -0.6713612165
 C         -1.6033704888       -1.9313815496        0.0965975651
 O         -1.6978334507       -2.5813389562        1.1236893168
 N         -0.2798717549       -0.9117051230       -1.6700051597
 N          2.0467419300       -0.5560440983       -1.4818688778
 N          3.2127764315       -1.1360832623        0.4210786370
 C          4.4353272445       -0.5814542236       -0.0631861763
 C          5.6771774104       -1.4915831341       -0.0148978719
 O          6.3564270587       -0.5744372146        0.8447331025
 C          5.2299042815        0.3000210176        0.9169434931
 H          0.9111961339       -0.0686021771       -3.1016704075
 H          0.8286678697       -2.0619977059        1.2747140896
 H         -2.9272623586        3.2211448084       -0.3341013495
 H         -3.5951444112        2.2517562688       -1.6660290171
 H         -1.3880535853        1.4388942538       -2.2885912530
 H         -1.3190530346        3.2047100044       -2.1979387647
 H          1.1698789720        2.9435803493       -1.9141691156
 H          3.0007542726        2.6868749344       -0.2875504966
 H          2.5296445692        1.7588102007        1.9527229353
 H          0.2323222614        1.0864198809        2.5406910180
 H         -2.3677607521        2.0057004209        1.7732887589
 H         -1.9422888574        0.2944748109        1.5872854426
 H         -4.8984683913        0.9030370453       -0.5390951816
 H         -4.6177121329        1.4644149224        1.1179730121
 H         -3.7641916600       -0.8100661856        1.7157232185
 H         -5.8895248229       -1.6762870110        1.5512858753
 H         -4.6639843320       -1.5803231694       -1.1041245174
 H         -4.1251514062       -2.6881294384        0.1861179848
 H         -2.4194182646       -0.8836747412       -1.3962453392
 H          3.2077889502       -1.5405455766        1.3450080853
 H          4.2245416120       -0.1322152506       -1.0329317985
 H          5.5149096363       -2.4590998769        0.4702182021
 H          6.2047855640       -1.6366916095       -0.9596302573
 H          5.4697726124        1.3085773474        0.5741600752
 H          4.8162904672        0.3430126592        1.9295738216
