  53
        -82.41395043
 C          0.8900023145       -0.7488891552       -2.1466641997
 C         -0.2808023801       -1.4409791408       -0.3512086398
 C          0.8704856954       -1.4669296930        0.4023761419
 C          2.0589251499       -1.0697612201       -0.2368250225
 C         -2.7394573759        2.1968750957       -1.0985855608
 C         -1.3418144214        2.1229404999       -1.7050594350
 C         -0.2919052763        2.0564078279       -0.6352568890
 C          1.0346418885        2.3539946549       -0.9221779608
 C          2.0078113334        2.2691988251        0.0543691465
 C          1.6595536270        1.8817277904        1.3378344424
 C          0.3436574744        1.5800302744        1.6307587308
 C         -0.6392559400        1.6621709014        0.6518416445
 C         -2.0646015504        1.3461472696        1.0109132764
 N         -2.8899514988        1.1051616423       -0.1554989577
 C         -4.2657753732        0.8104163578        0.1811531083
 C         -4.4567011642       -0.5851973361        0.8020651466
 O         -5.8271152398       -0.8174021337        1.0542709223
 C         -4.0037878950       -1.7142307461       -0.1413905549
 N         -2.6337337335       -1.5982180248       -0.5584908226
 C         -1.5969985951       -1.8056007069        0.2699574609
 O         -1.6821780223       -2.2476314130        1.4022989409
 N         -0.2799965821       -1.0715996443       -1.6419393323
 N          2.0532525238       -0.7234804519       -1.5279498022
 N          3.2315265775       -1.0374902334        0.4301594413
 C          4.4647426280       -0.6093916530       -0.1467225020
 C          5.6828465926       -1.5240021616        0.0809225464
 O          6.3768222188       -0.4845321429        0.7730329503
 C          5.2802719016        0.4224166558        0.6537515814
 H          0.9068313307       -0.4661674646       -3.1926030759
 H          0.8404747801       -1.7691706415        1.4360678281
 H         -2.8872433940        3.1788944966       -0.6137928639
 H         -3.4879350193        2.0932969625       -1.8876269459
 H         -1.2678059867        1.2162209610       -2.3124705351
 H         -1.1661914898        2.9822342671       -2.3555953274
 H          1.3020745065        2.6525947787       -1.9255507971
 H          3.0349314999        2.5024836202       -0.1828818013
 H          2.4131830255        1.8176127378        2.1092679429
 H          0.0675447359        1.2716089837        2.6292105471
 H         -2.4668077777        2.1881353580        1.6137795372
 H         -2.0753147918        0.4570760311        1.6449507145
 H         -4.8587886794        0.8420932583       -0.7374636887
 H         -4.6892104328        1.5616338512        0.8789791197
 H         -3.8844309514       -0.6675401036        1.7358540215
 H         -6.1401013397       -0.1796606542        1.7048926584
 H         -4.6501359533       -1.7186793094       -1.0196000890
 H         -4.1297154777       -2.6573441063        0.3977991117
 H         -2.4135965000       -1.0979745600       -1.4078750580
 H          3.2258231261       -1.2861786111        1.4075364143
 H          4.2627506993       -0.3461192198       -1.1842691686
 H          5.4926787020       -2.3864472508        0.7271296750
 H          6.2154521915       -1.8461542244       -0.8162185008
 H          5.5596914613        1.3331209415        0.1196773958
 H          4.8589214178        0.6813443661        1.6299130902
