  53
        -82.41209994
 C          1.6122328177       -0.0955960168        1.0875258924
 C          0.1580853045       -1.4548888486        0.0275674675
 C          1.1964515707       -2.0994191146       -0.6062693091
 C          2.4972379513       -1.6511936775       -0.3036863867
 C         -3.8119332057        2.1861766194        0.0334845114
 C         -3.4053333614        2.6898685324        1.4158678650
 C         -1.9709823231        3.1388787253        1.4369522042
 C         -1.4944247217        3.9157760742        2.4859796182
 C         -0.1712871116        4.3111455355        2.5319471968
 C          0.6953600659        3.9296246577        1.5208575599
 C          0.2293384470        3.1580951630        0.4737784581
 C         -1.0997862005        2.7574361465        0.4222385186
 C         -1.5834673377        1.9355351860       -0.7401173665
 N         -2.8132365244        1.2409751976       -0.4232803029
 C         -3.2624837307        0.3623263186       -1.4834705752
 C         -4.1054644472       -0.8136737698       -0.9402221857
 O         -4.1538067070       -1.8626795595       -1.8664238132
 C         -3.5647866114       -1.2946402330        0.4292292183
 N         -2.1291506768       -1.2043240221        0.5531048162
 C         -1.2650326842       -1.8356413238       -0.2487791332
 O         -1.5641954671       -2.6422772152       -1.1205003804
 N          0.3609898205       -0.4437801161        0.8874071654
 N          2.6868485796       -0.6355733682        0.5457953468
 N          3.5797462981       -2.2264496681       -0.8672307582
 C          4.9261999901       -1.8435683003       -0.5836618435
 C          5.8589980837       -1.6675099022       -1.7953589328
 O          6.7242890324       -2.7010612643       -1.3230506270
 C          5.8958694620       -2.9740613179       -0.1920026378
 H          1.7820339975        0.7281515423        1.7693903835
 H          1.0048569975       -2.9054473630       -1.2954983730
 H         -4.7801221225        1.6858274064        0.0897476768
 H         -3.9083417460        3.0391198693       -0.6623635850
 H         -4.0598032816        3.5077002008        1.7252382720
 H         -3.5247105500        1.8785172587        2.1404341786
 H         -2.1737068934        4.2111275274        3.2733843640
 H          0.1846694193        4.9152316375        3.3534199817
 H          1.7316541990        4.2324074536        1.5500676994
 H          0.9020164383        2.8565661918       -0.3169162481
 H         -0.8197042173        1.1953946827       -0.9968321211
 H         -1.7065544206        2.6041597155       -1.6170741570
 H         -2.3832069533       -0.0674547500       -1.9713085270
 H         -3.8393287821        0.8900628346       -2.2594160825
 H         -5.1480247914       -0.5024111506       -0.8064429894
 H         -3.2863924145       -2.3120423174       -1.8465076962
 H         -3.8692311581       -2.3404604202        0.5476429070
 H         -4.0007646994       -0.7027007303        1.2318489208
 H         -1.7348229874       -0.4457719370        1.0948818570
 H          3.4315330436       -3.0010704899       -1.4964756979
 H          4.8869457586       -1.0008998859        0.1056771692
 H          5.4097926516       -1.9226366556       -2.7602994152
 H          6.3708984675       -0.7058892163       -1.8703453967
 H          6.4306318363       -2.8414438906        0.7507283539
 H          5.4677465579       -3.9805109925       -0.2348274644
