  53
        -82.41886552
 C          0.9434144891       -1.2007327554        2.0720854149
 C         -0.3050489908       -1.4145374593        0.2097397905
 C          0.8194366967       -1.2970238793       -0.5739630126
 C          2.0418554192       -1.1008716791        0.0955928448
 C         -2.8045619670        1.9374528399        1.5540365870
 C         -1.3690939950        1.7473207578        2.0384555286
 C         -0.3846535872        1.8668636371        0.9108773205
 C          0.9688563964        2.0359369434        1.1751682000
 C          1.8879714395        2.1146509341        0.1467050838
 C          1.4570611439        2.0217505698       -1.1667290032
 C          0.1129626284        1.8523511106       -1.4388401047
 C         -0.8158038040        1.7726992805       -0.4085458594
 C         -2.2743919144        1.6172646367       -0.7290666217
 N         -3.0167644382        1.0898652354        0.3981860305
 C         -4.4061667275        0.8306663191        0.0817759855
 C         -4.6430000120       -0.5129385184       -0.6482769108
 O         -4.2366161924       -0.4978636062       -1.9908804511
 C         -4.0484946999       -1.7096825321        0.1203622986
 N         -2.6506821372       -1.5762068090        0.4623383534
 C         -1.6486586493       -1.5859562673       -0.4222488580
 O         -1.7850460598       -1.7220172298       -1.6321166830
 N         -0.2527622716       -1.3639140531        1.5509271486
 N          2.0867567134       -1.0669857920        1.4314488034
 N          3.1945416977       -0.9599529207       -0.5893837589
 C          4.4577661011       -0.6961106791        0.0214752511
 C          5.2566540274        0.4983319197       -0.5323376817
 O          6.3287737722       -0.3579507709       -0.9285080962
 C          5.6477979688       -1.5322285299       -0.4836435947
 H          1.0013530869       -1.1700603370        3.1535335345
 H          0.7465682007       -1.3410902726       -1.6477329751
 H         -3.4987003360        1.6492673433        2.3474980183
 H         -2.9805014750        3.0027178948        1.3177173432
 H         -1.1366721667        2.4744624022        2.8197770072
 H         -1.2668880626        0.7470537345        2.4707930339
 H          1.3016535099        2.1034308793        2.2012254733
 H          2.9368268767        2.2464120638        0.3683963220
 H          2.1684524383        2.0856343288       -1.9777828740
 H         -0.2284592823        1.7768902068       -2.4613396283
 H         -2.3948528606        0.9499685500       -1.5829297350
 H         -2.6728924958        2.6080822974       -1.0338503206
 H         -4.8423689407        1.6274036502       -0.5438551861
 H         -4.9699920317        0.7890897653        1.0175109566
 H         -5.7355779462       -0.6537470748       -0.6729286451
 H         -3.3696219787       -0.9444080376       -2.0612017831
 H         -4.1663295876       -2.5951156146       -0.5157623947
 H         -4.6060703583       -1.8617923133        1.0449121413
 H         -2.3874145209       -1.3473667174        1.4099161395
 H          3.1455441148       -0.9501392830       -1.5968599778
 H          4.3044967938       -0.6994280482        1.0999662130
 H          4.7974263777        0.9987443500       -1.3904268171
 H          5.5775250710        1.2418254375        0.2006463115
 H          6.2137743708       -2.0702085285        0.2796775955
 H          5.4140162424       -2.2061921034       -1.3134724403
