  53
        -82.41782548
 C          0.6773096943       -1.3993144915        2.5141983412
 C         -0.3165031013       -1.4333324545        0.4940775767
 C          0.8867113196       -1.1711289774       -0.1230163382
 C          2.0015928938       -0.9985529936        0.7160860510
 C         -2.4609098045        1.8844267491       -1.0801623802
 C         -1.0031490734        1.7793280629       -1.5111570546
 C         -0.0863799039        1.9285237618       -0.3335147578
 C          1.2569710845        2.2338725464       -0.5151877167
 C          2.1140818858        2.3469867127        0.5629318055
 C          1.6313632860        2.1544496307        1.8464003420
 C          0.2960843998        1.8546135888        2.0373536809
 C         -0.5705646790        1.7383432184        0.9579813247
 C         -2.0231064497        1.4316323397        1.2068520811
 N         -2.6824871392        0.9534604895        0.0118282817
 C         -4.0813157433        0.6160391307        0.2053968629
 C         -4.5095113943       -0.6027045686       -0.6512235888
 O         -4.1404355180       -0.4906118213       -1.9959151493
 C         -3.9944396860       -1.9288728419       -0.0446690830
 N         -2.6364492935       -1.8548912332        0.4433429084
 C         -1.5684586421       -1.5767947839       -0.3153290214
 O         -1.5725017128       -1.4704332314       -1.5332566616
 N         -0.4349977785       -1.5468411507        1.8252918926
 N          1.8764113033       -1.1349366211        2.0431871989
 N          3.2462850683       -0.7057215967        0.2882349691
 C          3.6647074152       -0.4360419836       -1.0473410279
 C          4.6323844858       -1.4501300088       -1.6966680998
 O          5.6331302322       -0.4426621475       -1.8512582166
 C          4.8384152269        0.5460426067       -1.1970408147
 H          0.6000001146       -1.5060525662        3.5894506474
 H          0.9334788328       -1.1103581080       -1.1961977114
 H         -2.6905390508        2.9211812398       -0.7700544206
 H         -3.1156232974        1.6195629518       -1.9100129256
 H         -0.8483234971        0.7921509493       -1.9554544710
 H         -0.7748832216        2.5310395432       -2.2694900152
 H          1.6285125550        2.3890991649       -1.5189318502
 H          3.1549170441        2.5888989551        0.4035866705
 H          2.2929295831        2.2348357375        2.6956892219
 H         -0.0839687711        1.7033527270        3.0380151435
 H         -2.5064760649        2.3515002053        1.5987102774
 H         -2.0959460895        0.6644633508        1.9848812268
 H         -4.7327141797        1.4672027517       -0.0469181339
 H         -4.2552581492        0.3639345597        1.2547826561
 H         -5.6077317322       -0.6385440286       -0.6491318487
 H         -3.1980438603       -0.7432271029       -2.0591653632
 H         -4.0504623911       -2.6910500686       -0.8304746214
 H         -4.6318059211       -2.2322620626        0.7863404521
 H         -2.4577846781       -1.8417819968        1.4384138546
 H          3.9426400309       -0.6600024118        1.0187431010
 H          2.7992664806       -0.1883940954       -1.6598613731
 H          4.9611224104       -2.2518060670       -1.0289296989
 H          4.3204645866       -1.8696386405       -2.6553332724
 H          4.6601949219        1.4160865438       -1.8328961265
 H          5.2869267517        0.8655364335       -0.2509869409
