  53
        -82.41147235
 C          1.2946750829       -1.5338050460        1.4775764361
 C         -0.1053331919       -1.3558492133       -0.2788979680
 C          0.9460080563       -1.0095594304       -1.0951621220
 C          2.2203296321       -0.9344635714       -0.4994416890
 C         -2.8178392095        2.1160791433       -1.1282206544
 C         -1.4293370008        1.9993200222       -1.7464807955
 C         -0.3698289403        2.0214109703       -0.6870256060
 C          0.9495459746        2.3191796477       -1.0057999276
 C          1.9338163043        2.3179273593       -0.0360100534
 C          1.6043045774        2.0147003209        1.2748607609
 C          0.2958014293        1.7138044233        1.6001340511
 C         -0.6983862205        1.7141545217        0.6294354440
 C         -2.1177569862        1.4129157573        1.0266439677
 N         -2.9507332438        1.0910693679       -0.1118653692
 C         -4.3168689298        0.7891929331        0.2487883040
 C         -4.4785060381       -0.6231527954        0.8388759056
 O         -5.8407252873       -0.9139814802        1.0465966414
 C         -3.8183989996       -1.6962893816       -0.0535128873
 N         -2.3961644436       -1.7535895659        0.1256274375
 C         -1.5023458670       -1.4265173744       -0.8213305567
 O         -1.7602779142       -1.2254545928       -1.9937076924
 N          0.0629444721       -1.6200461492        1.0272245941
 N          2.3763804886       -1.2122290578        0.7970908993
 N          3.2955997690       -0.5878109950       -1.2416428446
 C          4.6537300584       -0.4981185957       -0.7938437779
 C          5.2862850644       -1.6876091772       -0.0465669992
 O          5.7860524876       -0.8121980628        0.9640695882
 C          4.9903151538        0.2768580012        0.4937641089
 H          1.4455998805       -1.7527028939        2.5275942199
 H          0.7833991440       -0.8030247625       -2.1400601921
 H         -2.9649737977        3.1286345607       -0.7091352756
 H         -3.5715687051        1.9530978051       -1.9010373096
 H         -1.3759651020        1.0433429436       -2.2750346975
 H         -1.2649734642        2.8007661626       -2.4695944994
 H          1.2005387403        2.5575776146       -2.0302355712
 H          2.9551062648        2.5540775200       -0.2978665609
 H          2.3646812974        2.0130880437        2.0417573806
 H          0.0365578507        1.4726918337        2.6214271783
 H         -2.5184308425        2.2918769379        1.5763311423
 H         -2.1193648652        0.5684764073        1.7205713020
 H         -4.9212402372        0.8317865331       -0.6635507213
 H         -4.7395035839        1.5185700085        0.9649552491
 H         -4.0345702246       -0.6732496760        1.8387645600
 H         -6.2994817946       -0.8729613237        0.1990181639
 H         -3.9960049559       -1.4791642632       -1.1102247357
 H         -4.2649583843       -2.6656194978        0.2000682616
 H         -2.0176366159       -1.8776482531        1.0559275656
 H          3.1091813419       -0.3697099660       -2.2069473187
 H          5.2621276597       -0.1745027929       -1.6395829736
 H          4.5450796319       -2.3803530654        0.3586855702
 H          6.0829805230       -2.2312348312       -0.5586374782
 H          5.5689036251        1.1964863103        0.3832957756
 H          4.1196762268        0.4367550113        1.1322077490
