  53
        -82.41792222
 C          0.8369172381       -1.2658383694        1.9775670898
 C         -0.3086887986       -1.4435424573        0.0452487096
 C          0.8491398519       -1.2456388672       -0.6715715532
 C          2.0294648289       -1.0441745908        0.0674946030
 C         -2.7912121430        1.8380349738        1.0456639239
 C         -1.4656503274        1.6697798805        1.7810744715
 C         -0.3041913608        1.8707491992        0.8510729661
 C          0.9716694958        2.0929223867        1.3552636925
 C          2.0503072799        2.2638529699        0.5095485048
 C          1.8602844829        2.2159129568       -0.8617100366
 C          0.5971786601        1.9868520187       -1.3718723096
 C         -0.4908917520        1.8082746852       -0.5260633254
 C         -1.8532799069        1.5689427490       -1.1146163096
 N         -2.7627833874        1.0051945112       -0.1397273271
 C         -4.0680166375        0.6969775908       -0.6854464458
 C         -4.7314939680       -0.4784597275        0.0547917493
 O         -6.0977430671       -0.5756049642       -0.2705427804
 C         -4.0139278028       -1.8118463751       -0.2433663490
 N         -2.6437038589       -1.8165216537        0.1830854772
 C         -1.6162236664       -1.6302224230       -0.6631699563
 O         -1.7053409249       -1.6360209016       -1.8780559564
 N         -0.3231857555       -1.4539154997        1.3880553718
 N          2.0057670901       -1.0642048971        1.4040528833
 N          3.2122122036       -0.8407507030       -0.5485476582
 C          4.4405165286       -0.6136833821        0.1421132582
 C          5.3121881675        0.5510887511       -0.3598033336
 O          6.3868634604       -0.3381467222       -0.6659625229
 C          5.6371266672       -1.4897979351       -0.2754681340
 H          0.8382341269       -1.2775237823        3.0610266794
 H          0.8319908148       -1.2413567996       -1.7486596306
 H         -3.6155022012        1.5277239049        1.6898711728
 H         -2.9451939742        2.9016121550        0.7854368363
 H         -1.4038370103        2.3688374725        2.6179696804
 H         -1.4097486749        0.6540402834        2.1837649465
 H          1.1150241700        2.1300073916        2.4257243610
 H          3.0358423057        2.4348994245        0.9161321680
 H          2.6959212035        2.3602137933       -1.5312580775
 H          0.4440669882        1.9421375270       -2.4410053936
 H         -1.7643559816        0.8695308173       -1.9503040473
 H         -2.2334766830        2.5308178943       -1.5178445054
 H         -3.9433535606        0.4127855769       -1.7344422167
 H         -4.7526989261        1.5626775746       -0.6460422014
 H         -4.7113864095       -0.2964027792        1.1341778573
 H         -6.1778618128       -0.7246954079       -1.2202645137
 H         -4.0107443519       -1.9932523949       -1.3229415420
 H         -4.5609795866       -2.6199704936        0.2536119011
 H         -2.4280365056       -1.6973434858        1.1634382947
 H          3.2211579625       -0.8108635170       -1.5565351059
 H          4.2164491786       -0.6075950717        1.2081297202
 H          4.9333275869        1.0525952217       -1.2554344656
 H          5.5970167808        1.2954323841        0.3867127385
 H          6.1275500881       -2.0468389687        0.5253984956
 H          5.4425764161       -2.1547960068       -1.1225975181
