  53
        -82.41345095
 C          0.6644981312       -0.4197443702       -2.5887843349
 C         -0.1699176139       -1.2974014227       -0.6931532802
 C          1.0818586373       -1.2843881351       -0.1162524579
 C          2.1289504517       -0.7565775132       -0.8894803924
 C         -2.9093375418        2.2092575751       -0.8111728275
 C         -1.6085301215        2.2742060590       -1.6052659109
 C         -0.4169145124        2.2029469538       -0.6961360914
 C          0.8371987271        2.6080590484       -1.1359445197
 C          1.9402747213        2.5199139103       -0.3092772530
 C          1.7985798839        2.0209558641        0.9752013631
 C          0.5557906489        1.6114724167        1.4180819660
 C         -0.5578096236        1.6967099544        0.5909089274
 C         -1.8981111950        1.2607037636        1.1137047394
 N         -2.8634273980        1.0450959173        0.0534557312
 C         -4.1616389314        0.6415483528        0.5523154622
 C         -4.1786047320       -0.7871202222        1.1246751395
 O         -5.4450336284       -1.0776228349        1.6651668028
 C         -3.7894829521       -1.8442694334        0.0670423433
 N         -2.5120673356       -1.6027875914       -0.5455876275
 C         -1.3444930514       -1.8075163441        0.0885687587
 O         -1.2216629826       -2.3543213492        1.1698356472
 N         -0.3947758888       -0.8524340698       -1.9373771985
 N          1.9001053891       -0.3452035769       -2.1443614954
 N          3.4060741299       -0.6216652795       -0.4741183979
 C          3.9516357893       -0.9371903709        0.8036115193
 C          5.0261954338        0.0304910869        1.3324823508
 O          6.0025877342       -1.0100857768        1.3636289998
 C          5.0947987582       -1.9748201043        0.8288734835
 H          0.5049849138       -0.0819538317       -3.6059989821
 H          1.2050377485       -1.6671821362        0.8819131056
 H         -3.0449589351        3.1415156687       -0.2341826790
 H         -3.7534118927        2.1122144698       -1.4985690061
 H         -1.5680770251        1.4208372318       -2.2885997895
 H         -1.5757795415        3.1879482427       -2.2022954403
 H          0.9444164830        2.9930371952       -2.1398386614
 H          2.9085182898        2.8394830776       -0.6649129268
 H          2.6563312057        1.9509210537        1.6280900956
 H          0.4396144451        1.2160100885        2.4172225589
 H         -2.2612635301        2.0277410089        1.8288347267
 H         -1.7688292195        0.3313196425        1.6718856249
 H         -4.8682552486        0.6781357512       -0.2851564363
 H         -4.5375192947        1.3222987953        1.3387671097
 H         -3.4914199582       -0.8705160037        1.9697925314
 H         -6.1035656901       -1.0368298847        0.9611005250
 H         -4.5508908434       -1.8737258024       -0.7179260879
 H         -3.7542648076       -2.8162215980        0.5686178370
 H         -2.4584563374       -1.0087047832       -1.3609312362
 H          4.0367796462       -0.2542162306       -1.1728401367
 H          3.1468591526       -1.1382227399        1.5078316205
 H          5.3024930569        0.8287811121        0.6368163128
 H          4.8473901903        0.4512231237        2.3247755503
 H          4.9574302615       -2.8252910540        1.4999719567
 H          5.4090645106       -2.3273721264       -0.1577846532
