  53
        -82.41055344
 C          1.3275355072        0.2244093015        0.3819509534
 C          0.0989570911       -1.5456886525       -0.2762135993
 C          1.2439321496       -2.2374131612       -0.6043611030
 C          2.4673177753       -1.5776238569       -0.3866976699
 C         -3.2692052126        1.3967231924        2.0175983448
 C         -1.8147901490        1.5388357324        2.4550039990
 C         -1.0868755229        2.5213781970        1.5860472511
 C          0.0780893326        3.1355882688        2.0280629534
 C          0.7699224063        4.0122288107        1.2131620414
 C          0.3000800647        4.2798700817       -0.0622350396
 C         -0.8613397380        3.6772482364       -0.5062510770
 C         -1.5633851835        2.7989046072        0.3100416437
 C         -2.8584080553        2.2137191933       -0.1808134427
 N         -3.3010793298        1.0724015151        0.6018909888
 C         -4.5794645617        0.5542670869        0.1338929524
 C         -4.4247183985       -0.6014597253       -0.8805855473
 O         -3.8374473287       -0.1865115379       -2.0879045728
 C         -3.6457150623       -1.7750907720       -0.2651649638
 N         -2.2637398326       -1.4105005717       -0.0889409111
 C         -1.2429820525       -2.1811556079       -0.4945609535
 O         -1.3619303368       -3.2840293648       -0.9986870963
 N          0.1317960367       -0.3018328271        0.2263196378
 N          2.4898841585       -0.3353958922        0.1085372161
 N          3.6429943336       -2.1770152024       -0.6714099362
 C          4.9185428847       -1.5664915166       -0.4750492507
 C          5.9091337784       -1.6481997902       -1.6509661010
 O          6.8456496050       -2.3772046844       -0.8559052698
 C          5.9733628817       -2.4009127316        0.2749818048
 H          1.3652885797        1.2308841362        0.7783558882
 H          1.1820441492       -3.2345945545       -1.0082452706
 H         -3.7425687889        0.5875201663        2.5789198643
 H         -3.8160622101        2.3312160615        2.2332777170
 H         -1.7668036302        1.8460688133        3.5016269714
 H         -1.3159431979        0.5691648225        2.3636662094
 H          0.4428320839        2.9195817249        3.0226333985
 H          1.6740234179        4.4837483061        1.5692834021
 H          0.8371005302        4.9594691700       -0.7071096819
 H         -1.2347574206        3.8900627664       -1.4981277067
 H         -2.7532760737        1.9060911705       -1.2239480837
 H         -3.6217965974        3.0188696624       -0.1579533861
 H         -5.1842711300        1.3446745080       -0.3353659102
 H         -5.1454720634        0.1642091140        0.9831537495
 H         -5.4339098612       -0.9416995447       -1.1431078874
 H         -2.8785333435       -0.2236463012       -1.9744287393
 H         -3.6722089276       -2.6432414089       -0.9306256563
 H         -4.0977059190       -2.0524614978        0.6936787358
 H         -2.0845714669       -0.4880023708        0.3086212752
 H          3.6184508285       -3.1141683773       -1.0441151311
 H          4.7429623226       -0.5670739049       -0.0783710838
 H          5.5576475508       -2.2349781626       -2.5055196806
 H          6.3185851228       -0.6980773400       -2.0002958019
 H          6.4237200096       -1.9296178784        1.1510618561
 H          5.6586990562       -3.4191772648        0.5245631884
