  53
        -82.40986255
 C          2.4739727420        0.2633074163        0.6005280962
 C          0.7872930287       -1.1114669919        0.0124362987
 C          1.6843951307       -2.0131820153       -0.5122600676
 C          3.0492481073       -1.6752140468       -0.4216861344
 C         -3.9289668395        2.7212253426       -1.2643967855
 C         -4.3816769980        2.8273796010        0.2019416580
 C         -3.2242797291        2.8946947383        1.1624607464
 C         -3.4609228469        3.1624586031        2.5067175713
 C         -2.4255220812        3.1783942993        3.4220077525
 C         -1.1310038086        2.9192031871        3.0020759830
 C         -0.8832716988        2.6559416892        1.6674889684
 C         -1.9205508451        2.6437993900        0.7419003184
 C         -1.6331163563        2.3880934641       -0.7172290449
 N         -2.7598605440        1.9056714268       -1.4787674070
 C         -2.9240776896        0.4904195701       -1.6736843365
 C         -3.5991658553       -0.3972198335       -0.5919883065
 O         -3.8068085435       -1.6813799516       -1.1211742981
 C         -2.8436817126       -0.4790094850        0.7547897625
 N         -1.4032311387       -0.4853855944        0.6366936233
 C         -0.6854428869       -1.3823152327       -0.0477454243
 O         -1.1422292774       -2.3265795447       -0.6775813171
 N          1.1774383336        0.0436854196        0.5765785664
 N          3.4270731760       -0.5218482973        0.1408702702
 N          4.0032109589       -2.4993189102       -0.8986289837
 C          5.4035386265       -2.2246068888       -0.8325021936
 C          6.2099906737       -2.4663939424       -2.1208954967
 O          7.0152244463       -3.4522148230       -1.4730926573
 C          6.2951263247       -3.3344636872       -0.2452511064
 H          2.8017048280        1.1933576784        1.0486407845
 H          1.3403543924       -2.9286868437       -0.9645959931
 H         -4.7435320805        2.3343771588       -1.8796381516
 H         -3.6802538693        3.7275595396       -1.6243180985
 H         -5.0078203869        3.7150769644        0.3223252330
 H         -4.9991597514        1.9650049012        0.4704252451
 H         -4.4728829771        3.3577816354        2.8330987786
 H         -2.6274729414        3.3893039834        4.4617122397
 H         -0.3180898758        2.9221294319        3.7129036767
 H          0.1245080134        2.4551401845        1.3317953701
 H         -0.7939377084        1.6988493747       -0.8278742651
 H         -1.3253290528        3.3460420460       -1.1671611258
 H         -1.9385196289        0.0712492256       -1.8956065892
 H         -3.5384179804        0.3566468554       -2.5725564711
 H         -4.6053259479       -0.0135959346       -0.3880546328
 H         -2.9404737343       -2.1326570706       -1.1440723660
 H         -3.1707989336       -1.4068480435        1.2403020017
 H         -3.1098889705        0.3626208118        1.3925126105
 H         -0.8781911325        0.2625495702        1.0733760132
 H          3.7121384037       -3.3708564170       -1.3155023755
 H          5.5223453421       -1.2406380628       -0.3803417325
 H          5.6341996731       -2.8915136375       -2.9490196854
 H          6.8031299149       -1.6228728973       -2.4801162987
 H          6.9419414971       -3.0401046470        0.5838207199
 H          5.7683734729       -4.2598156305        0.0081417439
