  53
        -82.41117756
 C          0.8494500595       -1.7792234834        1.9114714024
 C         -0.2307462613       -1.4896247024       -0.0434200404
 C          0.9558142851       -1.1784194004       -0.6670831365
 C          2.1126403236       -1.1726408248        0.1333884708
 C         -3.0747968214        1.9852507726       -0.5297240811
 C         -1.9131303773        2.0153354399       -1.5196529672
 C         -0.5926731465        2.0398192252       -0.8084635226
 C          0.5701713800        2.3782151763       -1.4902640800
 C          1.7945522593        2.3782478451       -0.8498515095
 C          1.8708723003        2.0439950622        0.4927256021
 C          0.7206389602        1.7016003315        1.1766008366
 C         -0.5115533351        1.6880034654        0.5346716507
 C         -1.7423541712        1.3042964696        1.3071334695
 N         -2.8297618837        0.9285788855        0.4297268390
 C         -3.9923308679        0.4469357768        1.1454851132
 C         -4.7888334830       -0.6519492879        0.3952495889
 O         -5.8901987481       -0.1311492380       -0.3108091663
 C         -3.9245495037       -1.5126912746       -0.5499992320
 N         -2.5923074050       -1.7664869764       -0.0754908673
 C         -1.5154088963       -1.4297291361       -0.8066283831
 O         -1.5573010295       -1.1039375620       -1.9802270589
 N         -0.2940160972       -1.7974577664        1.2625676832
 N          2.0411715217       -1.4832512337        1.4320754589
 N          3.3184184951       -0.8673546117       -0.3889304820
 C          4.5198152843       -0.7792384585        0.3770704521
 C          5.3458998138        0.5115610420        0.2249543327
 O          6.4656246679       -0.2227223027       -0.2718376444
 C          5.7629954772       -1.4653883377       -0.2183314953
 H          0.8132865130       -2.0300555517        2.9650921566
 H          0.9734313113       -0.9284618609       -1.7145700912
 H         -3.1731822356        2.9673816616       -0.0295747828
 H         -4.0065453638        1.7900301637       -1.0638283170
 H         -1.9445636851        1.1083314678       -2.1304482204
 H         -2.0029123342        2.8767024236       -2.1850297699
 H          0.5071049043        2.6427574443       -2.5362725729
 H          2.6885995717        2.6478661493       -1.3942478952
 H          2.8223070277        2.0462960343        1.0040671992
 H          0.7755446339        1.4315778983        2.2219728894
 H         -2.0244367562        2.1544827085        1.9632811390
 H         -1.5024230110        0.4536124188        1.9525262624
 H         -4.7013259630        1.2549964912        1.3921987630
 H         -3.6476073599        0.0176046458        2.0887722377
 H         -5.2490628763       -1.2937723379        1.1553312709
 H         -5.5670117174        0.3668367424       -1.0712149017
 H         -3.8046561560       -0.9941538549       -1.5075142087
 H         -4.4512907765       -2.4554768257       -0.7390574849
 H         -2.4276499335       -1.9778239205        0.8979066009
 H          3.3528520457       -0.5876235954       -1.3574241377
 H          4.2748736086       -1.0609821259        1.4005312753
 H          4.9599460518        1.2156476951       -0.5186775642
 H          5.5826476060        1.0428394205        1.1494536433
 H          6.2640457130       -2.1928005499        0.4236550850
 H          5.6151010682       -1.8923456504       -1.2150450801
