  53
        -82.41335265
 C          0.9751901164       -1.5555804708        1.8780964158
 C         -0.2188893662       -1.4450807343       -0.0303088590
 C          0.9255288680       -1.1730680625       -0.7435100983
 C          2.1247907655       -1.0861921836       -0.0131223997
 C         -2.6990330688        2.1033835969       -1.2777199732
 C         -1.2713212655        1.9089876095       -1.7750466847
 C         -0.3004861058        1.9341145834       -0.6341226487
 C          1.0503291330        2.1764794032       -0.8524005206
 C          1.9525045297        2.1699852342        0.1942107442
 C          1.5091123213        1.9155026859        1.4813280159
 C          0.1674750721        1.6762271003        1.7079338045
 C         -0.7450278618        1.6838956414        0.6601479474
 C         -2.2028052518        1.4493321801        0.9497441514
 N         -2.9566940781        1.1239059084       -0.2409216377
 C         -4.3571327988        0.8850479144        0.0148273856
 C         -4.6196349048       -0.5022061018        0.6255807795
 O         -6.0031095202       -0.7833431090        0.6383807831
 C         -3.9455885774       -1.6228644574       -0.1836337144
 N         -2.5535599162       -1.7552448213        0.1365800617
 C         -1.5527588903       -1.4868093219       -0.7174896579
 O         -1.6742674695       -1.3067710269       -1.9144727799
 N         -0.2012273487       -1.6414059494        1.2984130825
 N          2.1332978335       -1.2894413682        1.3081342557
 N          3.2931927089       -0.8040432991       -0.6261542707
 C          4.5372971423       -0.6590429023        0.0577066990
 C          5.4024251108        0.5524420033       -0.3328654679
 O          6.4726586436       -0.2993554188       -0.7427844124
 C          5.7228991452       -1.4859779282       -0.4758645100
 H          1.0021713307       -1.7204801957        2.9484802208
 H          0.8840641544       -1.0212505963       -1.8091992858
 H         -2.8365440859        3.1362996537       -0.9069896185
 H         -3.3947873990        1.9396779713       -2.1025788906
 H         -1.2151303476        0.9298256195       -2.2591006519
 H         -1.0166404887        2.6725433102       -2.5127059356
 H          1.3910914679        2.3743161639       -1.8593833244
 H          2.9994833169        2.3641979079        0.0120911495
 H          2.2080655893        1.8995596096        2.3038897906
 H         -0.1819164568        1.4758907066        2.7111648434
 H         -2.6090674233        2.3606162579        1.4414061255
 H         -2.2913738733        0.6273225876        1.6650576998
 H         -4.8887756157        0.9158267598       -0.9401498970
 H         -4.8003753691        1.6590582313        0.6760604684
 H         -4.2324967737       -0.5377690563        1.6585475129
 H         -6.4720098420       -0.0411974027        1.0358281050
 H         -4.0159803394       -1.4121061746       -1.2520452956
 H         -4.4798533895       -2.5530905130        0.0361018038
 H         -2.2768831823       -1.8659972486        1.1039575678
 H          3.2777722447       -0.6481769266       -1.6224551904
 H          4.3369504840       -0.7693284186        1.1228055451
 H          5.0117440751        1.1403727971       -1.1698783751
 H          5.6963349220        1.2181377948        0.4815482957
 H          6.2224688197       -2.1334945475        0.2473636775
 H          5.5114911191       -2.0476502787       -1.3910491173
