  53
        -82.41934660
 C          0.9100345991       -1.4069873728        2.0185566898
 C         -0.3975872078       -1.4307488351        0.1830354510
 C          0.6926905975       -1.1674865232       -0.6127714652
 C          1.9330212345       -1.0201348370        0.0371552935
 C         -2.7425702324        1.9186476181       -0.8882122430
 C         -1.3659066378        1.8302105675       -1.5354533566
 C         -0.2826356500        1.9442743279       -0.5043259952
 C          1.0200989976        2.2541755260       -0.8760205210
 C          2.0279712852        2.3416016555        0.0652759502
 C          1.7412340900        2.1159518404        1.4010235389
 C          0.4488891758        1.8082533794        1.7803853035
 C         -0.5691298621        1.7189222056        0.8391221407
 C         -1.9682862058        1.4003731049        1.2933938589
 N         -2.8006365682        0.9558649452        0.1971665383
 C         -4.1558752663        0.6138377366        0.5906734162
 C         -4.7182838372       -0.5777475410       -0.2252279471
 O         -4.5728537584       -0.4201491298       -1.6076994062
 C         -4.1144191250       -1.9210973791        0.2463830244
 N         -2.6944271209       -1.8601212955        0.5068805186
 C         -1.7665968931       -1.5566636541       -0.4101548544
 O         -1.9723933480       -1.4185145922       -1.6072539455
 N         -0.2957129636       -1.5564531296        1.5166664127
 N          2.0243452473       -1.1496415411        1.3644607064
 N          3.0559840686       -0.7544393558       -0.6595072356
 C          4.3408285179       -0.5809783170       -0.0620913867
 C          5.2098980436        0.5599860107       -0.6172716760
 O          6.2349452885       -0.3580082637       -0.9989196108
 C          5.4740543196       -1.4907357834       -0.5760257452
 H          1.0050139590       -1.5102994965        3.0927101516
 H          0.5864012624       -1.0743660272       -1.6807355006
 H         -2.9213486928        2.9453077734       -0.5170201493
 H         -3.5147037135        1.6767382540       -1.6181181814
 H         -1.2814313798        0.8590104839       -2.0306831945
 H         -1.2519151757        2.6070288012       -2.2943051746
 H          1.2384134933        2.4323131493       -1.9201075762
 H          3.0345844617        2.5899789654       -0.2377931093
 H          2.5226254305        2.1768901962        2.1433751707
 H          0.2209285753        1.6304126792        2.8220816851
 H         -2.3866106269        2.3059749839        1.7812980085
 H         -1.9240221969        0.6094082406        2.0494837764
 H         -4.8332970240        1.4729944576        0.4662880658
 H         -4.1693574995        0.3299621817        1.6463087387
 H         -5.8017259776       -0.6173812076       -0.0458485220
 H         -3.6558339817       -0.6729708580       -1.8335367845
 H         -4.3003561890       -2.6582572778       -0.5432255751
 H         -4.6077702963       -2.2522192896        1.1606293214
 H         -2.3558659655       -1.8643240148        1.4594853059
 H          2.9819837373       -0.6639705469       -1.6612681912
 H          4.2001144114       -0.5834143573        1.0180796004
 H          4.7854734571        1.0745461129       -1.4853782959
 H          5.5654147586        1.2927116139        0.1102164526
 H          5.9984492314       -2.0794893931        0.1791244451
 H          5.1972246397       -2.1319448939       -1.4186512230
