  53
        -82.40978612
 C          1.4878680858        0.3650407731       -0.0979900837
 C          0.2082324729       -1.3938196732       -0.6914615594
 C          1.3283098386       -2.1882648361       -0.8025494020
 C          2.5668279458       -1.5810397180       -0.5246939310
 C         -2.8985662957        1.0709428584        1.9319719024
 C         -1.4084423316        1.2669774782        2.1821010381
 C         -0.9135206162        2.5133293469        1.5102556487
 C          0.2783739176        3.1067392273        1.9074473136
 C          0.7538672278        4.2384188487        1.2725807380
 C          0.0346017816        4.7913221024        0.2256982880
 C         -1.1522881436        4.2078629037       -0.1740543690
 C         -1.6347766182        3.0690145701        0.4595937980
 C         -2.9505400909        2.4842485965        0.0206919181
 N         -3.1444663562        1.1285480779        0.5015447591
 C         -4.4380876599        0.5862382493        0.1250596730
 C         -4.4016403420       -0.9420548751       -0.0160694614
 O         -5.7332228909       -1.3580373818       -0.2200608545
 C         -3.5041957615       -1.3660979500       -1.1908631777
 N         -2.1247423349       -1.0452322808       -0.9493899537
 C         -1.1470896307       -1.9615493180       -0.9960567722
 O         -1.3060617119       -3.1357287808       -1.2858942252
 N          0.2813508732       -0.1038600045       -0.3304868933
 N          2.6291152982       -0.2920276234       -0.1730473204
 N          3.7194882302       -2.2800370041       -0.6057353212
 C          5.0089121061       -1.7256789919       -0.3447194305
 C          6.0989220279       -1.9877187145       -1.4004398552
 O          6.9046612520       -2.6806973332       -0.4457841738
 C          5.9295320820       -2.5343995128        0.5876699673
 H          1.5535472331        1.4069467904        0.1901450797
 H          1.2383960311       -3.2217773492       -1.0942799945
 H         -3.2120152020        0.0965458483        2.3101313492
 H         -3.4765365865        1.8457800499        2.4665549326
 H         -1.2069723106        1.3061626526        3.2544948816
 H         -0.8638953299        0.4162217948        1.7629699253
 H          0.8357124653        2.6709482181        2.7248825703
 H          1.6821269755        4.6890616438        1.5917446935
 H          0.3989426390        5.6749779803       -0.2769272161
 H         -1.7169190930        4.6384766766       -0.9892009686
 H         -2.9921606425        2.4708914027       -1.0730167859
 H         -3.7590559540        3.1546349453        0.3753990676
 H         -4.7337233844        0.9974110401       -0.8427973143
 H         -5.2271590045        0.8456065569        0.8480398177
 H         -4.0026543738       -1.3917135567        0.9070725147
 H         -5.7445837800       -2.3108257895       -0.3650640899
 H         -3.8555074534       -0.8657678085       -2.1017294702
 H         -3.5633611325       -2.4496436701       -1.3443208991
 H         -1.9211467103       -0.1152605727       -0.5892624502
 H          3.6667360714       -3.2501163326       -0.8772667644
 H          4.8641757784       -0.6812063760       -0.0705978956
 H          5.7916459121       -2.6405586588       -2.2234997949
 H          6.6025130097       -1.1047074297       -1.7992264348
 H          6.3255595615       -1.9993790392        1.4533309647
 H          5.5249141520       -3.5008413556        0.9046041447
