  53
        -82.41306989
 C          0.8407639543       -1.7696681881       -1.6124895092
 C         -0.3089246066       -1.5163289234        0.3112979282
 C          0.8598198085       -1.2678751426        0.9913486184
 C          2.0484395764       -1.2820745429        0.2363505049
 C         -2.5936563569        1.8842702566       -1.2770837432
 C         -1.1810265271        1.5650423274       -1.7601274305
 C         -0.1849961078        1.7690908003       -0.6539444349
 C          1.1658785630        1.9310348628       -0.9368018218
 C          2.0870754665        2.1130338295        0.0776033560
 C          1.6613911774        2.1169877265        1.3960777113
 C          0.3208160185        1.9534680463        1.6866466181
 C         -0.6115497726        1.7845799318        0.6702858771
 C         -2.0677280538        1.6597339405        1.0217663013
 N         -2.8429557516        1.1129538797       -0.0731127881
 C         -4.2455332538        0.9126983952        0.2504620178
 C         -4.7360311900       -0.4744708215       -0.2127588654
 O         -4.5884206333       -0.6413944486       -1.6014472426
 C         -4.0399274060       -1.6253728374        0.5495612829
 N         -2.6530587380       -1.7438157414        0.1948650730
 C         -1.6279799842       -1.5000633185        1.0241751824
 O         -1.7278512321       -1.2903211865        2.2199051529
 N         -0.3285720996       -1.7579162012       -1.0111986949
 N          2.0233657836       -1.5560511514       -1.0721863198
 N          3.2403032382       -1.0290846904        0.8103441135
 C          4.4917970281       -1.0731375450        0.1089588199
 C          5.5678478252       -0.1314423715        0.6600339677
 O          5.6032941991        0.6101240423       -0.5562143428
 C          4.6000271569       -0.2126177406       -1.1607969154
 H          0.8373457617       -1.9769858102       -2.6760457490
 H          0.8467335746       -1.0687328108        2.0496703557
 H         -2.6801852384        2.9695727711       -1.0832776372
 H         -3.3245400764        1.6245302016       -2.0453880510
 H         -1.1337401839        0.5179871658       -2.0774509127
 H         -0.9241338961        2.1875079002       -2.6199494231
 H          1.4912302512        1.9221892439       -1.9681617972
 H          3.1312177186        2.2622537244       -0.1548303195
 H          2.3746632582        2.2576909370        2.1958155300
 H         -0.0169342409        1.9569292031        2.7130978110
 H         -2.4366509481        2.6654290623        1.3122715604
 H         -2.1708444384        1.0045979054        1.8896113293
 H         -4.8788805315        1.6792856023       -0.2186522001
 H         -4.3894879134        0.9762821992        1.3310946511
 H         -5.8127764032       -0.5434746664       -0.0211632464
 H         -3.6545651583       -0.4990590294       -1.8016284044
 H         -4.5561163797       -2.5607488917        0.3073890524
 H         -4.0904924273       -1.4524342307        1.6259022660
 H         -2.4035929270       -1.9072020842       -0.7720475503
 H          3.2500242237       -0.7865986909        1.7881988653
 H          4.8153594832       -2.1101040442       -0.0324520243
 H          5.2463962172        0.4880658669        1.5035992724
 H          6.5328622603       -0.5919014317        0.8877750831
 H          4.9733841574       -0.7339450974       -2.0433223636
 H          3.6986644621        0.3456359322       -1.4115833106
