  53
        -82.41085948
 C          1.0144329214       -1.4717159573       -1.8380533827
 C         -0.2941788034       -1.5778419148       -0.0063309434
 C          0.8078577811       -1.4275615074        0.8031273709
 C          2.0538751661       -1.2869762019        0.1615243279
 C         -2.3999959499        1.9224109523       -1.5679302500
 C         -0.9437304985        1.6975160096       -1.9649728289
 C         -0.0340151250        1.8301793392       -0.7787954949
 C          1.3259205161        2.0636797576       -0.9437628630
 C          2.1654976725        2.1726990398        0.1490348740
 C          1.6490799728        2.0275547863        1.4263381212
 C          0.2989849872        1.7919735529        1.5992400968
 C         -0.5521378795        1.6990593053        0.5046265358
 C         -2.0229571137        1.4937581548        0.7341940765
 N         -2.7174629767        1.0454287986       -0.4568038141
 C         -4.1400106759        0.8780183867       -0.2419718195
 C         -4.4789664758       -0.3369722450        0.6311886943
 O         -5.8812687557       -0.3254299437        0.7970052876
 C         -4.0294284364       -1.6656216013       -0.0164844848
 N         -2.6303099959       -1.6934089192       -0.3437997248
 C         -1.6618745796       -1.7432703102        0.5858422845
 O         -1.8457344327       -1.9254004856        1.7769554026
 N         -0.1995884051       -1.5795118576       -1.3462336587
 N          2.1432499342       -1.3386454324       -1.1709285497
 N          3.1819584793       -1.0961324336        0.8744341974
 C          4.5045997055       -1.0503483344        0.3180391714
 C          5.4686256289       -0.1015411715        1.0415388091
 O          5.6334977858        0.6923288692       -0.1299636678
 C          4.7208220998       -0.1150063785       -0.8813289596
 H          1.1054421009       -1.4952944519       -2.9176013790
 H          0.7051514911       -1.4219441297        1.8754612126
 H         -2.5580569574        2.9846301567       -1.3085289679
 H         -3.0516217689        1.6800490627       -2.4106948013
 H         -0.8396618377        0.6851366664       -2.3667974708
 H         -0.6527460881        2.4024469743       -2.7465968314
 H          1.7236636731        2.1680249159       -1.9437760784
 H          3.2167865007        2.3773954175        0.0106052469
 H          2.2983123335        2.1076583781        2.2864523462
 H         -0.1096017277        1.6818412141        2.5939237819
 H         -2.4525871531        2.4473785204        1.1065342223
 H         -2.1505332290        0.7502293017        1.5234155635
 H         -4.6243758288        0.7308771415       -1.2104914810
 H         -4.6019597747        1.7627535312        0.2303990864
 H         -3.9865873047       -0.2462782032        1.6083821721
 H         -6.1302263340       -1.0469310334        1.3849856078
 H         -4.6094190501       -1.8322998181       -0.9263148041
 H         -4.2302518617       -2.4780008864        0.6918397728
 H         -2.3296597273       -1.4042707039       -1.2635000864
 H          3.1007983006       -1.0874419158        1.8790978016
 H          4.8966249002       -2.0624527324        0.1629736986
 H          5.0151030054        0.4702997451        1.8574281585
 H          6.4123376296       -0.5400979451        1.3763661022
 H          5.1965223620       -0.5744602538       -1.7488684394
 H          3.8343148618        0.4370116013       -1.1903732376
