  53
        -82.41494556
 C          1.2343288119       -1.4224107679        1.6203999916
 C         -0.2792949115       -1.3674325962       -0.0472924102
 C          0.7054892149       -1.0290865999       -0.9452381001
 C          2.0148173956       -0.8984849268       -0.4396806475
 C         -2.8411891388        1.9236128666       -0.7278642122
 C         -1.5269354313        1.9045186554       -1.4992762870
 C         -0.3581625376        2.0219084676       -0.5664325876
 C          0.8969714980        2.3804347515       -1.0440703099
 C          1.9806825650        2.4842963833       -0.1932038829
 C          1.8180147616        2.2305802812        1.1587268576
 C          0.5770421640        1.8626902738        1.6412219724
 C         -0.5156064055        1.7530144449        0.7900575968
 C         -1.8552165496        1.3680687035        1.3572384301
 N         -2.7680376136        0.9274586467        0.3257728560
 C         -4.0686212381        0.5222001491        0.8282641137
 C         -4.6571843919       -0.6695328776        0.0321630657
 O         -4.6607996202       -0.4628814442       -1.3514292848
 C         -3.9510212020       -1.9967468666        0.3946328104
 N         -2.5147201363       -1.8822143882        0.5059617266
 C         -1.7016537219       -1.5131054450       -0.4917606542
 O         -2.0401513210       -1.3375422623       -1.6535682713
 N         -0.0207078475       -1.5656128646        1.2559040205
 N          2.2604551462       -1.1095693489        0.8555382110
 N          3.0286697488       -0.5658104894       -1.2677978681
 C          4.4191710330       -0.4764479442       -0.9325678687
 C          5.1073302719       -1.6674231016       -0.2380986880
 O          5.6924463383       -0.7931429348        0.7255806605
 C          4.8639053124        0.2986756641        0.3209187209
 H          1.4584429275       -1.5843751132        2.6676619724
 H          0.4724732137       -0.8776249732       -1.9862420741
 H         -3.0196552036        2.9316461837       -0.3085815409
 H         -3.6680379257        1.6756323641       -1.3929647351
 H         -1.4583438268        0.9549632580       -2.0367974731
 H         -1.5068730856        2.7106942008       -2.2355710366
 H          1.0167981447        2.5855323195       -2.0991041124
 H          2.9493035496        2.7672258021       -0.5790445037
 H          2.6548877130        2.3209207429        1.8351724056
 H          0.4480276923        1.6559085713        2.6944482880
 H         -2.2583752134        2.2409184558        1.9128321196
 H         -1.7144213265        0.5554644854        2.0777965634
 H         -4.7863378473        1.3562986098        0.7892429927
 H         -3.9764289310        0.2112041799        1.8722579437
 H         -5.7139183650       -0.7658592759        0.3181980958
 H         -3.7619062096       -0.6679420634       -1.6775136927
 H         -4.1907288679       -2.7197771744       -0.3937145180
 H         -4.3303113353       -2.3734569478        1.3449459566
 H         -2.0744838160       -1.9158363415        1.4154014416
 H          2.7728792704       -0.4026831732       -2.2282156188
 H          4.9561248372       -0.1559383451       -1.8264120828
 H          4.3993683543       -2.3571343143        0.2282744737
 H          5.8561566371       -2.2162452451       -0.8131131494
 H          5.4344626578        1.2155740190        0.1603797713
 H          4.0496606385        0.4621355805        1.0285144335
