  53
        -82.41027747
 C          1.5316475661       -1.0711965093        1.5716111272
 C          0.2496642668       -1.9334570519       -0.0685031072
 C          1.3694275743       -2.4165040314       -0.7077579453
 C          2.6110258764       -2.1602468659       -0.0951085129
 C         -2.9033346132        1.4847129888        2.0905870852
 C         -3.2629822222        2.9707492456        1.9975272198
 C         -2.2997130270        3.7034843167        1.1028441865
 C         -2.2472009503        5.0924331021        1.1285392776
 C         -1.3844829196        5.7854641035        0.3019806602
 C         -0.5594103061        5.0899840403       -0.5673069848
 C         -0.6073221798        3.7100521309       -0.6008954378
 C         -1.4733943956        3.0054952044        0.2269890691
 C         -1.4788280023        1.4975821498        0.1845250346
 N         -2.6457110048        0.8807370776        0.7976526345
 C         -3.8011778944        0.8531131973       -0.0846519673
 C         -3.7668706119       -0.3385551197       -1.0602269582
 O         -2.8298064782       -0.0881393199       -2.0820749299
 C         -3.4659825721       -1.6646938751       -0.3359322375
 N         -2.1055198652       -1.7273612044        0.1295831419
 C         -1.1077249320       -2.1357515364       -0.6689059385
 O         -1.2634216254       -2.6525043696       -1.7665167723
 N          0.3240090531       -1.2496982075        1.0846806376
 N          2.6738516659       -1.4808367493        1.0548915793
 N          3.7634073112       -2.5938097286       -0.6477102599
 C          5.0567977189       -2.3395163630       -0.0982981017
 C          6.0999122936       -1.7189857235       -1.0466650401
 O          6.9551279062       -2.8541241927       -0.9026746273
 C          6.0283800997       -3.5322630231       -0.0532032355
 H          1.6044198166       -0.5215335672        2.5023262788
 H          1.2797597412       -2.9592522686       -1.6344153190
 H         -1.9912826472        1.3668987517        2.6831822995
 H         -3.7058500150        0.9303218951        2.5861124396
 H         -4.2747850222        3.0795691882        1.5926950831
 H         -3.2616802422        3.4186730877        2.9937909786
 H         -2.8927190320        5.6300788266        1.8093976200
 H         -1.3541141518        6.8647065158        0.3341085791
 H          0.1167986528        5.6244055702       -1.2183410200
 H          0.0314569818        3.1611622975       -1.2784592922
 H         -0.5911846506        1.1256987967        0.7136699613
 H         -1.4165851005        1.1562738454       -0.8500095104
 H         -3.8915122621        1.7700016627       -0.6845668636
 H         -4.7016360815        0.7485551071        0.5255062776
 H         -4.7736917190       -0.4222477246       -1.5092687347
 H         -2.5100648907       -0.9326414944       -2.4287998481
 H         -3.6121149603       -2.4954489597       -1.0341641447
 H         -4.1410249391       -1.7818802725        0.5134117639
 H         -1.8586283807       -1.1183787279        0.9022976477
 H          3.7115755964       -3.0860730436       -1.5267870790
 H          4.9124492580       -1.8144621528        0.8452766868
 H          5.7619117850       -1.5926097382       -2.0800226269
 H          6.5756891090       -0.7993539251       -0.6998487577
 H          6.4593930367       -3.7630189611        0.9232476452
 H          5.6492171581       -4.4493190516       -0.5150485277
