  53
        -82.41073316
 C          1.3712025726        0.3209420716       -0.0181121648
 C          0.1331269400       -1.5502502233       -0.2291068673
 C          1.2686684989       -2.2912110471       -0.4716406867
 C          2.4919007126       -1.5959508244       -0.4706894884
 C         -3.1141958593        2.1203553802       -0.7987817639
 C         -1.6383685836        2.4393868110       -1.0020785727
 C         -1.0267716721        2.9335879925        0.2755537052
 C          0.1455291576        3.6793925643        0.2610995422
 C          0.7286531449        4.1083447782        1.4383868532
 C          0.1389202371        3.7918275055        2.6511489914
 C         -1.0297136468        3.0552744188        2.6737028774
 C         -1.6207763412        2.6213380961        1.4932460617
 C         -2.9192250869        1.8618074628        1.5597182180
 N         -3.2396948652        1.1902985972        0.3128252656
 C         -4.5333852808        0.5210117851        0.3476997344
 C         -4.5222000580       -0.8199024747       -0.4212067208
 O         -4.2039212256       -0.6625489515       -1.7805618310
 C         -3.5782170410       -1.8307626048        0.2472407373
 N         -2.2094290112       -1.3972811851        0.1272247578
 C         -1.2053989677       -2.2281382904       -0.1918685201
 O         -1.3344148445       -3.4167204299       -0.4270532534
 N          0.1754288671       -0.2276570255       -0.0067120034
 N          2.5248702387       -0.2796727420       -0.2348682326
 N          3.6576350663       -2.2352103319       -0.7046660536
 C          4.9321986013       -1.5919278158       -0.7157818448
 C          5.8445648556       -1.8924674655       -1.9192227340
 O          6.8445048210       -2.4501830392       -1.0651616332
 C          6.0490057998       -2.2612381987        0.1061335786
 H          1.4160226062        1.3859418589        0.1722446632
 H          1.2004794182       -3.3520514866       -0.6484626121
 H         -3.6727547044        3.0522015034       -0.5986247745
 H         -3.5327991073        1.6636073701       -1.6963179025
 H         -1.1101381448        1.5293082971       -1.3014359102
 H         -1.5173204200        3.1796523457       -1.7951512772
 H          0.6010619067        3.9244017879       -0.6884066439
 H          1.6401462239        4.6871403507        1.4120912279
 H          0.5885361337        4.1207348848        3.5762649908
 H         -1.4951465720        2.8116183132        3.6186483527
 H         -3.7163730521        2.5775428734        1.8444854034
 H         -2.8562478729        1.1088391662        2.3522970277
 H         -5.3231318753        1.1607701808       -0.0729301777
 H         -4.8010161497        0.3002335930        1.3837703786
 H         -5.5423226232       -1.2217833581       -0.3998549437
 H         -3.2415574962       -0.6106252470       -1.8472421948
 H         -3.6564004868       -2.8060685567       -0.2430051236
 H         -3.8551535888       -1.9477318290        1.3017409169
 H         -2.0191816121       -0.4101934471        0.2988283542
 H          3.6263950124       -3.2281619405       -0.8800606572
 H          4.7652164786       -0.5358768311       -0.5063374930
 H          5.4484073430       -2.6342276063       -2.6199012400
 H          6.2127287545       -1.0248858944       -2.4707475958
 H          6.5471226413       -1.6281961408        0.8433722693
 H          5.7701252956       -3.2143483291        0.5664235969
