  53
        -82.41571964
 C          0.9779761211       -1.5418232611        1.8807580128
 C         -0.2186196922       -1.4433382689       -0.0268052898
 C          0.9245258425       -1.1761315769       -0.7437654519
 C          2.1246930565       -1.0836497377       -0.0151394961
 C         -2.6783334384        2.0863485041       -1.2998160591
 C         -1.2441733330        1.8921510309       -1.7782559880
 C         -0.2879467314        1.9249483960       -0.6250374593
 C          1.0651529124        2.1673739407       -0.8281559187
 C          1.9541489684        2.1680671138        0.2296722657
 C          1.4944929838        1.9209945640        1.5125319641
 C          0.1503467964        1.6817803840        1.7238775821
 C         -0.7491860701        1.6820641622        0.6648100976
 C         -2.2103722137        1.4487824495        0.9372769394
 N         -2.9479926766        1.1114936407       -0.2612431086
 C         -4.3540757116        0.8825288021       -0.0191166158
 C         -4.6353044122       -0.4936774622        0.6100094833
 O         -6.0230780300       -0.7166828057        0.6984799301
 C         -3.9449222289       -1.6332850382       -0.1701782214
 N         -2.5518368814       -1.7461373068        0.1534172802
 C         -1.5537049770       -1.4958950131       -0.7093841396
 O         -1.6822039586       -1.3414704515       -1.9095724840
 N         -0.1990747314       -1.6310430046        1.3030554684
 N          2.1350442346       -1.2792544770        1.3071751989
 N          3.2923804448       -0.8047392232       -0.6307991208
 C          4.5362829831       -0.6525284070        0.0521772607
 C          5.3966024564        0.5608758363       -0.3430641845
 O          6.4687837099       -0.2883967395       -0.7532820360
 C          5.7244600389       -1.4768416951       -0.4795258039
 H          1.0063496929       -1.7004082387        2.9519624265
 H          0.8823842462       -1.0319948798       -1.8105142809
 H         -2.8226066612        3.1207060203       -0.9367387354
 H         -3.3625783401        1.9182474427       -2.1337994422
 H         -1.1796480527        0.9113168683       -2.2578801946
 H         -0.9818792601        2.6531008419       -2.5160220827
 H          1.4182496844        2.3596167267       -1.8320366037
 H          3.0031798481        2.3618826604        0.0593427798
 H          2.1830985635        1.9108900711        2.3438537661
 H         -0.2116559716        1.4874984416        2.7237157546
 H         -2.6243113953        2.3634828868        1.4139578622
 H         -2.3097804664        0.6338895377        1.6589041132
 H         -4.8686965472        0.9095106863       -0.9855396544
 H         -4.8074423942        1.6604009121        0.6235125522
 H         -4.2897422341       -0.5172356459        1.6489922425
 H         -6.3984339371       -0.6928364651       -0.1898062882
 H         -4.0067677615       -1.4546184141       -1.2469626245
 H         -4.4612031471       -2.5695565849        0.0749454856
 H         -2.2740086077       -1.8358057049        1.1224666350
 H          3.2762874452       -0.6524713188       -1.6276487227
 H          4.3366109104       -0.7598523279        1.1176952866
 H          5.0023882284        1.1460145091       -1.1803565246
 H          5.6900787568        1.2289797693        0.4695381779
 H          6.2278025148       -2.1186794534        0.2461809100
 H          5.5142351176       -2.0439374547       -1.3916315637
