  53
        -82.41332942
 C          0.6762831042       -0.3362918011       -2.5804175568
 C         -0.1718220040       -1.2945492049       -0.7305401363
 C          1.0752700122       -1.3055555623       -0.1434896948
 C          2.1273054982       -0.7427136874       -0.8849388409
 C         -2.9375714001        2.2207809490       -0.7300123728
 C         -1.6625976696        2.3140424287       -1.5628799090
 C         -0.4427417926        2.2416705233       -0.6922239631
 C          0.7914542902        2.6764926459       -1.1589866068
 C          1.9203532960        2.5862291061       -0.3680811582
 C          1.8250634924        2.0549335567        0.9075815729
 C          0.6019863406        1.6169339644        1.3775121908
 C         -0.5374104411        1.7045584053        0.5865925700
 C         -1.8557107509        1.2394576901        1.1396360605
 N         -2.8543666729        1.0395067930        0.1079692834
 C         -4.1321041161        0.6161272661        0.6426149362
 C         -4.1256708786       -0.8361273322        1.1373621236
 O         -5.4183046972       -1.0845945969        1.6469670644
 C         -3.7932499629       -1.8340846346        0.0059190187
 N         -2.5173434102       -1.5851929061       -0.6072111967
 C         -1.3541206097       -1.8337652660        0.0177097959
 O         -1.2437373222       -2.4393971290        1.0702023399
 N         -0.3874103388       -0.7960032286       -1.9557586692
 N          1.9083895909       -0.2801465569       -2.1233512591
 N          3.4006706859       -0.6230101116       -0.4533236967
 C          3.9321792379       -0.9751602089        0.8206132324
 C          4.9974073362       -0.0218236643        1.3926911366
 O          5.9727748325       -1.0635892132        1.4142942557
 C          5.0771015422       -2.0111077828        0.8306591333
 H          0.5243607152        0.0438036906       -3.5836208602
 H          1.1924372128       -1.7317201116        0.8377717775
 H         -3.0619779068        3.1399130276       -0.1301648609
 H         -3.8025467922        2.1290298319       -1.3908915683
 H         -1.6331538344        1.4728413737       -2.2617554786
 H         -1.6583025405        3.2378921828       -2.1449846618
 H          0.8627410196        3.0866800185       -2.1560497193
 H          2.8725702928        2.9285430487       -0.7450617736
 H          2.7028867258        1.9819095706        1.5330641977
 H          0.5221248954        1.1976842811        2.3707079611
 H         -2.2023071903        1.9833258093        1.8870354170
 H         -1.6980050654        0.2972262493        1.6693178220
 H         -4.8826478265        0.6865486722       -0.1485104407
 H         -4.4706493230        1.2508742985        1.4799834623
 H         -3.3793734389       -0.9598453290        1.9338130395
 H         -5.4406172545       -1.9742029964        2.0163962470
 H         -4.5717193601       -1.7837263521       -0.7577596171
 H         -3.7719209773       -2.8432940029        0.4330748249
 H         -2.4609418116       -0.9454295745       -1.3868176895
 H          4.0356084182       -0.2228808340       -1.1298799255
 H          3.1198315131       -1.1989196456        1.5092196603
 H          5.2859810503        0.7928593124        0.7212713985
 H          4.8018099650        0.3746939299        2.3917612691
 H          4.9308089590       -2.8849534470        1.4689965385
 H          5.4092542846       -2.3279492706       -0.1622378246
