  53
        -82.41357206
 C          0.8276155893       -1.6000884197       -1.7807729262
 C         -0.2770608888       -1.4209656384        0.1749897395
 C          0.9000981176       -1.1358930297        0.8273371866
 C          2.0649379476       -1.0804052585        0.0405053934
 C         -2.7393183161        2.1493204772        1.3227112620
 C         -1.2959476250        1.9662934309        1.7802649227
 C         -0.3611935045        1.9440003678        0.6081861595
 C          0.9958356395        2.1904073095        0.7766170675
 C          1.8653832854        2.1449099604       -0.2964762535
 C          1.3815748753        1.8465098770       -1.5594718762
 C          0.0332882750        1.6026037568       -1.7362596315
 C         -0.8470430522        1.6488119348       -0.6620655610
 C         -2.3134825560        1.4213405498       -0.8969904563
 N         -3.0316546108        1.1383448425        0.3275652688
 C         -4.4393160354        0.9010972356        0.1073537229
 C         -4.7533178328       -0.5433406406       -0.3193120248
 O         -4.4649230533       -0.6967157182       -1.6939984000
 C         -3.9923856456       -1.5862476784        0.5248837838
 N         -2.6199457456       -1.6913170156        0.1181421492
 C         -1.5749576661       -1.4580189103        0.9264327275
 O         -1.6373704245       -1.3226217968        2.1347027571
 N         -0.3213662171       -1.6573185876       -1.1461272933
 N          2.0128436716       -1.3281336350       -1.2718769142
 N          3.2622328844       -0.7880271826        0.5906303847
 C          4.4734465472       -0.6717928630       -0.1546889590
 C          5.6818524084       -1.4799669474        0.3557956544
 O          6.4440668676       -0.2857264909        0.5406958119
 C          5.3565106105        0.5520976519        0.1472507199
 H          0.8048826032       -1.7993148332       -2.8453219435
 H          0.9091094600       -0.9528624183        1.8889494991
 H         -3.4084305340        2.0175839076        2.1757434327
 H         -2.8830090453        3.1710425030        0.9243744058
 H         -1.0150082944        2.7581506867        2.4779003366
 H         -1.2238255082        1.0088589902        2.3040299419
 H          1.3680398955        2.4233987627        1.7649940926
 H          2.9178735363        2.3430673598       -0.1535632659
 H          2.0551996572        1.8005962386       -2.4020103036
 H         -0.3487814179        1.3691196540       -2.7200310103
 H         -2.4550851691        0.5875908160       -1.5875482577
 H         -2.7253329425        2.3265053198       -1.3932774617
 H         -4.8631497275        1.5743285172       -0.6581448809
 H         -4.9692746580        1.0771053906        1.0460774158
 H         -5.8339314711       -0.6967649789       -0.1567237343
 H         -4.7088822201       -1.5885058034       -1.9667921174
 H         -4.4814333385       -2.5640374704        0.4136171946
 H         -4.0035443809       -1.3007813723        1.5781407682
 H         -2.4124572676       -1.6945828601       -0.8732697138
 H          3.2922279881       -0.5927877308        1.5795967487
 H          4.2239721533       -0.8229865244       -1.2042955166
 H          5.5124681356       -2.0044480995        1.3013376128
 H          6.1470629616       -2.1569972494       -0.3633697002
 H          5.6128011120        1.1842611336       -0.7056350070
 H          5.0054973935        1.1737687102        0.9773803657
