  53
        -82.41695028
 C          0.7197873800       -1.1543285571       -1.9637297297
 C         -0.2995849967       -1.4405194714        0.0259013317
 C          0.9070134122       -1.3193794013        0.6746902106
 C          2.0397448837       -1.0863022855       -0.1270376071
 C         -2.8903499353        2.0547386266       -0.8780981147
 C         -1.5481827020        1.8738601735       -1.5823499218
 C         -0.4196836371        1.9188114663       -0.5915788633
 C          0.8846686766        2.1366140006       -1.0179354745
 C          1.9304263636        2.1681053918       -0.1159899550
 C          1.6776833596        1.9803260203        1.2331378444
 C          0.3848560254        1.7561882027        1.6653161408
 C         -0.6707330794        1.7194569135        0.7623410924
 C         -2.0679440646        1.4890371316        1.2681742602
 N         -2.9614944491        1.0873916375        0.2015356544
 C         -4.3033843420        0.7578793692        0.6498342204
 C         -4.8030509415       -0.5495886419        0.0004572631
 O         -4.8010711559       -0.4677791009       -1.4035782165
 C         -3.9984833485       -1.7815616222        0.4726665171
 N         -2.6389443389       -1.7512832346        0.0091515632
 C         -1.5662861410       -1.6340361828        0.8047506068
 O         -1.5892016065       -1.6730663587        2.0221978134
 N         -0.4034392846       -1.3584021741       -1.3114308637
 N          1.9277001399       -1.0129399458       -1.4573601201
 N          3.2636093664       -0.9463810766        0.4221789336
 C          4.4457575227       -0.6619593504       -0.3257305194
 C          5.6847371658       -1.5148754735        0.0040063433
 O          6.4202294185       -0.3556536039        0.3989924037
 C          5.3105967890        0.5128410033        0.1671494914
 H          0.6497417482       -1.0927106678       -3.0432683830
 H          0.9599572960       -1.3884648481        1.7483275286
 H         -2.9698343536        3.0890558242       -0.4953765437
 H         -3.7120030328        1.8958452688       -1.5789775372
 H         -1.5262972046        0.8992768777       -2.0807514067
 H         -1.4114224737        2.6437396945       -2.3447546510
 H          1.0773016184        2.2816371825       -2.0713960211
 H          2.9387715206        2.3387366320       -0.4629029265
 H          2.4880808933        2.0112122783        1.9473622164
 H          0.1825861729        1.6013224315        2.7154466934
 H         -2.4168941626        2.4225962108        1.7564130577
 H         -2.0482727364        0.7051525364        2.0285809476
 H         -5.0157694985        1.5602661479        0.4098078085
 H         -4.3083885418        0.6189042420        1.7327956130
 H         -5.8504926792       -0.7012611240        0.2844511323
 H         -3.8982193291       -0.2516942978       -1.6689410015
 H         -4.4925396508       -2.6809443746        0.0887605506
 H         -3.9714531372       -1.8218005359        1.5630386002
 H         -2.4551345267       -1.6930730289       -0.9838559765
 H          3.3342634605       -0.9707663846        1.4279769331
 H          4.1646426660       -0.6289303032       -1.3775842703
 H          5.5500328631       -2.2138996308        0.8353024557
 H          6.1513249213       -2.0297718953       -0.8384474775
 H          5.5419804333        1.2819949848       -0.5728189274
 H          4.9615038057        0.9821985746        1.0919233475
