  53
        -82.41443461
 C          0.7606071132       -1.1189750518       -2.0172640265
 C         -0.3224845329       -1.4394857434       -0.0682931343
 C          0.8611808229       -1.3109702385        0.6223564602
 C          2.0176530028       -1.0580590098       -0.1372451308
 C         -2.8672442629        1.8988355192       -0.8549819382
 C         -1.5260206317        1.7607921627       -1.5665334657
 C         -0.3816142519        1.8875445080       -0.6044353752
 C          0.9062219750        2.1270497379       -1.0691259189
 C          1.9718305623        2.2216765863       -0.1954193193
 C          1.7570497171        2.0760132748        1.1653364614
 C          0.4812581394        1.8334158519        1.6364324999
 C         -0.5942794896        1.7346535135        0.7619646813
 C         -1.9721863209        1.4894822029        1.3115986563
 N         -2.8799292552        1.0127792557        0.2915441512
 C         -4.2065737389        0.7206926734        0.7904587581
 C         -4.8342428574       -0.5122651673        0.1173394437
 O         -4.9886972037       -0.2648942997       -1.2635142389
 C         -4.0184361805       -1.7931084424        0.3738472723
 N         -2.6770463534       -1.7172616330       -0.1318807393
 C         -1.6003762935       -1.6949035616        0.6712624229
 O         -1.6281489647       -1.8959719382        1.8727791476
 N         -0.3821253585       -1.3401940069       -1.4057775980
 N          1.9505602886       -0.9747770949       -1.4698645408
 N          3.2220431617       -0.9131527317        0.4541679102
 C          4.4267961478       -0.6212372100       -0.2530698012
 C          5.6512355831       -1.4893560847        0.0929033141
 O          6.3825687560       -0.3433889265        0.5319755683
 C          5.2847613018        0.5370770421        0.2879019444
 H          0.7263259900       -1.0460737582       -3.0978435934
 H          0.8796647307       -1.3964227787        1.6960254076
 H         -3.0238114872        2.9504797130       -0.5491833719
 H         -3.6759309232        1.6090293823       -1.5251478908
 H         -1.4714007018        0.7728541731       -2.0330956101
 H         -1.4389666199        2.5096615927       -2.3568322163
 H          1.0697426004        2.2375359162       -2.1316932564
 H          2.9665471793        2.4077682885       -0.5724510152
 H          2.5828144490        2.1560000945        1.8578797137
 H          0.3087617571        1.7153156021        2.6970269006
 H         -2.3329977752        2.4341180894        1.7707191238
 H         -1.9119490236        0.7376070364        2.1038915538
 H         -4.8913497122        1.5723766896        0.6519599341
 H         -4.1485768845        0.5032235620        1.8592486796
 H         -5.8285111803       -0.6616978291        0.5758782126
 H         -5.3339599321       -1.0598783369       -1.6854821180
 H         -4.5363851651       -2.6420110725       -0.0940366591
 H         -3.9458236110       -1.9755537755        1.4487112553
 H         -2.5326715427       -1.4072743183       -1.0830147602
 H          3.2594785961       -0.9471934084        1.4613820633
 H          4.1758585142       -0.5653862065       -1.3116542593
 H          5.4895048757       -2.2045498731        0.9052770589
 H          6.1379283734       -1.9895428524       -0.7469637077
 H          5.5411728329        1.3203428059       -0.4286721741
 H          4.9130272150        0.9891215806        1.2123604917
