  53
        -82.40989342
 C          0.7642971168       -1.2142112318        1.9463440350
 C         -0.3087844314       -1.3943217501       -0.0282897007
 C          0.8791807433       -1.2256189264       -0.7008897079
 C          2.0345027121       -1.0454312414        0.0819443997
 C         -2.4577837379        1.1911732837        1.3848082600
 C         -1.4857619486        2.3592017869        1.5933421597
 C         -0.3046454023        2.2027740576        0.6911998345
 C          1.0121377711        2.3514431808        1.0929326337
 C          2.0343387524        2.2354585272        0.1667933348
 C          1.7411182253        1.9619293782       -1.1586858024
 C          0.4282200298        1.7807502976       -1.5589778158
 C         -0.5968577508        1.9006909558       -0.6358319075
 C         -2.0411234302        1.7319557359       -0.9876920312
 N         -2.7123652824        0.8803542911       -0.0175323657
 C         -4.1085172648        0.6845057777       -0.3336689501
 C         -4.6706131520       -0.6229534569        0.2414382617
 O         -6.0533565780       -0.6148537668       -0.0364120527
 C         -3.9862813166       -1.8588218295       -0.3740713914
 N         -2.6078611448       -1.9587840813        0.0169897995
 C         -1.5986200637       -1.5442057498       -0.7784362667
 O         -1.6812468352       -1.3683107659       -1.9779704886
 N         -0.3727315937       -1.4016307630        1.3137546716
 N          1.9575473005       -1.0364152444        1.4165314978
 N          3.2471515812       -0.8929514385       -0.4902170191
 C          4.4524943193       -0.6760671463        0.2426949951
 C          5.3517649629        0.4819424850       -0.2273559680
 O          6.4251190371       -0.4180712406       -0.5059169259
 C          5.6539387280       -1.5624065038       -0.1364577020
 H          0.7220890295       -1.2076810475        3.0290592800
 H          0.9030141666       -1.2279627733       -1.7776200774
 H         -2.0215412308        0.2997110638        1.8548245053
 H         -3.4008362579        1.4223063033        1.8984585817
 H         -1.9931293879        3.2980606353        1.3467166053
 H         -1.1857323583        2.4013295217        2.6410850769
 H          1.2386913365        2.5672533154        2.1271823099
 H          3.0606507834        2.3604400791        0.4793994671
 H          2.5395280912        1.8869746893       -1.8833684039
 H          0.1956810019        1.5479590623       -2.5876780031
 H         -2.1317952178        1.2493827518       -1.9641593492
 H         -2.5143637221        2.7320624382       -1.0514717433
 H         -4.2177452275        0.6353343922       -1.4185910522
 H         -4.7480915247        1.5082933157        0.0310893815
 H         -4.5087060696       -0.6447840669        1.3328493696
 H         -6.4356708669       -1.4570397569        0.2343788754
 H         -4.0132371092       -1.7919412683       -1.4643465282
 H         -4.5195972629       -2.7644723879       -0.0570715223
 H         -2.3914997100       -1.9507920268        1.0056993067
 H          3.2939814486       -0.8738770365       -1.4974124397
 H          4.1919096397       -0.6682419759        1.3004153099
 H          5.0064152835        0.9939116155       -1.1307243312
 H          5.6230961658        1.2178142855        0.5328028809
 H          6.1147982244       -2.1215314915        0.6804750652
 H          5.4802961589       -2.2279785668       -0.9876382685
