  53
        -82.41130111
 C          0.9558256920       -2.2799593863       -1.5004357105
 C         -0.1457816176       -1.7663937117        0.3953206457
 C          1.0308346085       -1.3709821533        0.9895108878
 C          2.1944035901       -1.4469177920        0.2024205200
 C         -3.3118919987        3.0301694833       -0.3291916456
 C         -2.1329450917        3.3474602152        0.5975255369
 C         -0.8675467684        2.7023283897        0.1010850471
 C          0.3662938580        3.1069927743        0.5975694958
 C          1.5377717453        2.5369388250        0.1381933233
 C          1.4896690613        1.5555005073       -0.8388563840
 C          0.2669482188        1.1369808066       -1.3259085354
 C         -0.9163672789        1.6919429454       -0.8540857670
 C         -2.2332320564        1.2177674823       -1.4182814615
 N         -3.4064774566        1.6172730911       -0.6508359004
 C         -3.6307480696        0.7822228484        0.5230439703
 C         -4.4568492567       -0.4819951232        0.1613890919
 O         -4.5181083510       -0.7078743839       -1.2267493169
 C         -3.8637294007       -1.7405851992        0.8199707061
 N         -2.5091132787       -1.9665195445        0.3961755013
 C         -1.4391206448       -1.6478296507        1.1432141024
 O         -1.4847021173       -1.2870348151        2.3069529329
 N         -0.1945536855       -2.2214097857       -0.8663693954
 N          2.1399820897       -1.9175917847       -1.0479371686
 N          3.3908963468       -1.0561776013        0.6901522098
 C          4.5850274270       -0.9976572399       -0.0908717917
 C          5.8818166811       -1.4320977670        0.6127855515
 O          6.4577920969       -0.1378931545        0.4274989415
 C          5.2784293336        0.3749344732       -0.1937618348
 H          0.9319291564       -2.6587195338       -2.5151550425
 H          1.0356331969       -1.0043739043        2.0025284123
 H         -4.2523936964        3.3502463572        0.1272403149
 H         -3.1910637300        3.5691202456       -1.2735148969
 H         -1.9950332260        4.4287631869        0.6668128781
 H         -2.3468331253        2.9804996538        1.6063424870
 H          0.4011230888        3.8842978052        1.3480047739
 H          2.4887124564        2.8678485247        0.5305128406
 H          2.4009929726        1.1179103407       -1.2202476134
 H          0.2222797168        0.3695006473       -2.0858214751
 H         -2.2182033198        0.1298097513       -1.5096397839
 H         -2.3479291311        1.6308149905       -2.4299548345
 H         -4.1976057836        1.3592626951        1.2555578328
 H         -2.6858580683        0.4874636102        0.9926638438
 H         -5.4844724588       -0.3589916209        0.5437992109
 H         -4.5794629445        0.1618270872       -1.6467789520
 H         -4.4768691831       -2.6018526939        0.5448196150
 H         -3.8563604723       -1.6176840241        1.9050099193
 H         -2.3395900587       -2.2061895234       -0.5716142294
 H          3.4100868901       -0.6459846427        1.6116812559
 H          4.3778855470       -1.4877965214       -1.0416642510
 H          5.7661655068       -1.6780536929        1.6728903141
 H          6.4594263137       -2.2133864745        0.1144508659
 H          5.4728121822        0.7413537311       -1.2041573576
 H          4.8155206370        1.1666213951        0.4039075831
