  53
        -82.41114749
 C          0.9286022233       -1.8353249888        1.8247689424
 C         -0.3526118573       -1.6268505313       -0.0197485815
 C          0.7599801413       -1.3347452664       -0.7734626496
 C          1.9943277306       -1.2994844311       -0.0964393467
 C         -2.3801852362        1.8129893187        1.1327328211
 C         -0.9563710086        1.5961300105        1.6348503110
 C          0.0382521592        1.8164906793        0.5323324736
 C          1.3734285996        2.0713244454        0.8208627554
 C          2.2966289980        2.2625745830       -0.1904120961
 C          1.8872678706        2.1852633747       -1.5118881973
 C          0.5614783763        1.9327962178       -1.8079465170
 C         -0.3730147226        1.7516542659       -0.7950245475
 C         -1.8139957982        1.5280208124       -1.1564088961
 N         -2.5847657497        0.9984433751       -0.0489721419
 C         -3.9800940950        0.8092726910       -0.3938908096
 C         -4.6241817081       -0.3383260172        0.3961177520
 O         -6.0145334237       -0.2469253221        0.1800150651
 C         -4.0825057386       -1.7096973408       -0.0558037570
 N         -2.6900579888       -1.8706492446        0.2509297375
 C         -1.7113781765       -1.6710397390       -0.6513822440
 O         -1.8777272970       -1.5748091836       -1.8525999062
 N         -0.2773288675       -1.8622780942        1.3014662321
 N          2.0654514432       -1.5778098707        1.2094651951
 N          3.1378910602       -1.0044296882       -0.7446489529
 C          4.4227504906       -0.9732949114       -0.1055042240
 C          4.5587530314       -0.0719532300        1.1334663947
 O          5.4983371314        0.7696488096        0.4565694320
 C          5.4333768250       -0.0095425085       -0.7347826429
 H          1.0019771931       -2.0444612885        2.8854353370
 H          0.6733996124       -1.1414031535       -1.8292675741
 H         -3.0935096162        1.5163868271        1.9039317649
 H         -2.5412994026        2.8851238338        0.9153241367
 H         -0.7450008432        2.2624816381        2.4741391712
 H         -0.8598828010        0.5659091696        1.9910952411
 H          1.6844441997        2.1292251385        1.8551725021
 H          3.3283976871        2.4763124448        0.0467426622
 H          2.6004800138        2.3341285010       -2.3105258545
 H          0.2365123665        1.8784592578       -2.8375401689
 H         -1.8714987640        0.8143345507       -1.9827402723
 H         -2.2308586994        2.4924833731       -1.5127025394
 H         -4.0516385915        0.5596057314       -1.4538510348
 H         -4.5816974035        1.7164727839       -0.2219908199
 H         -4.4031193664       -0.2151828479        1.4701163014
 H         -6.4503626412       -1.0010262747        0.5925373229
 H         -4.1930806273       -1.8054105098       -1.1389807093
 H         -4.6558681702       -2.5066285561        0.4347021614
 H         -2.3923273721       -1.8569002664        1.2174613402
 H          3.0709894349       -0.7010578878       -1.7030152471
 H          4.7909941621       -1.9927106264        0.0501449521
 H          3.6493868677        0.4599156807        1.4113864759
 H          4.9949284116       -0.5519539568        2.0105910419
 H          6.4036300967       -0.4404448544       -0.9958337225
 H          5.0483753143        0.5714838709       -1.5789912076
