  53
        -82.41270329
 C          0.7664472762       -1.1987148405        1.9498442341
 C         -0.3131659925       -1.3896145791       -0.0202419094
 C          0.8728336131       -1.2271068142       -0.6979266306
 C          2.0310520121       -1.0451527068        0.0802840266
 C         -2.4828053786        1.1913582338        1.3581461412
 C         -1.5106537892        2.3548560634        1.5900173579
 C         -0.3117909799        2.2015983752        0.7108279607
 C          0.9968459336        2.3496799547        1.1387027479
 C          2.0369418436        2.2402939897        0.2318863289
 C          1.7699940899        1.9748625259       -1.1007231242
 C          0.4654666507        1.7936883776       -1.5272427848
 C         -0.5771715072        1.9064144392       -0.6231762413
 C         -2.0137636783        1.7358376990       -1.0039125259
 N         -2.7015563093        0.8791202454       -0.0502723847
 C         -4.0886420606        0.6739858951       -0.4001139857
 C         -4.6777884365       -0.6125158330        0.2042414703
 O         -6.0675048208       -0.6698585867       -0.0184909967
 C         -3.9886934174       -1.8748316410       -0.3526768381
 N         -2.6097729345       -1.9598392303        0.0387781364
 C         -1.6068364317       -1.5443653291       -0.7622090074
 O         -1.6987615961       -1.3696452908       -1.9623962848
 N         -0.3727061875       -1.3873895772        1.3218691353
 N          1.9585163742       -1.0276701491        1.4149231807
 N          3.2424966424       -0.8983749725       -0.4962218519
 C          4.4506774843       -0.6842126345        0.2328801088
 C          5.3501469237        0.4732913080       -0.2382374210
 O          6.4205375284       -0.4280597980       -0.5236306989
 C          5.6494272694       -1.5716929211       -0.1517725800
 H          0.7275202904       -1.1847388734        3.0325336360
 H          0.8937600247       -1.2363772921       -1.7747340566
 H         -2.0640688538        0.2981961495        1.8397361405
 H         -3.4374268497        1.4287324218        1.8466938922
 H         -2.0096003540        3.2971502850        1.3388314910
 H         -1.2314769471        2.3905724492        2.6436128305
 H          1.2029279288        2.5596785776        2.1783430765
 H          3.0569229571        2.3639811453        0.5648124418
 H          2.5822364893        1.9060733926       -1.8103444948
 H          0.2534366975        1.5672293280       -2.5618695900
 H         -2.0825664372        1.2559785300       -1.9838151277
 H         -2.4889107211        2.7350564908       -1.0742408801
 H         -4.1506785574        0.5931637278       -1.4898551548
 H         -4.7312091724        1.5191718782       -0.0850012618
 H         -4.5681948826       -0.5982783759        1.2936574490
 H         -6.2263765868       -0.6772474868       -0.9699824266
 H         -4.0102621941       -1.8598159563       -1.4464958002
 H         -4.5307554569       -2.7557226223        0.0068409934
 H         -2.3920815649       -1.9577579419        1.0267318825
 H          3.2873282438       -0.8868771871       -1.5036046307
 H          4.1933161211       -0.6773277842        1.2913904983
 H          5.0022537087        0.9885090268       -1.1387145715
 H          5.6259840566        1.2066221307        0.5227349948
 H          6.1128462518       -2.1317926415        0.6630385825
 H          5.4717748859       -2.2366571289       -1.0026100270
