  53
        -82.41113981
 C          0.7424171403       -1.9914400751       -1.5568833824
 C         -0.3049458368       -1.4134545004        0.3508432293
 C          0.8929397501       -1.0200877914        0.9031532600
 C          2.0368182319       -1.1400860861        0.0936234189
 C         -3.0225109168        2.0975741796        0.3127179168
 C         -1.8479695694        2.2845155523        1.2700622257
 C         -0.5330553087        2.2103790898        0.5514097458
 C          0.6346654043        2.6322190382        1.1764312520
 C          1.8561346921        2.5419713886        0.5367301955
 C          1.9254065306        2.0289061012       -0.7484758571
 C          0.7707433164        1.6022875305       -1.3752418935
 C         -0.4588594878        1.6825364499       -0.7334337672
 C         -1.6960323373        1.2057762763       -1.4404024503
 N         -2.7653026886        0.9311379995       -0.5060016475
 C         -3.9287739507        0.3641720023       -1.1450315407
 C         -4.7927563609       -0.5028176670       -0.2078214622
 O         -5.4553179619       -1.4125596037       -1.0635624442
 C         -3.9842723320       -1.2363463832        0.8828409623
 N         -2.6725121633       -1.6446278590        0.4609134904
 C         -1.5757562259       -1.2270340772        1.1168508844
 O         -1.5905711265       -0.7409820043        2.2348398272
 N         -0.3900380357       -1.9084099583       -0.8943456428
 N          1.9434679777       -1.6364323881       -1.1444069140
 N          3.2523692020       -0.7709621668        0.5487666806
 C          4.4449394061       -0.8154490504       -0.2340639892
 C          5.6780752960       -1.4550601155        0.4311650279
 O          6.4145466854       -0.2363428491        0.3163537794
 C          5.3071119063        0.4601007396       -0.2568083636
 H          0.6881769861       -2.3927497271       -2.5620386934
 H          0.9285436361       -0.6187799073        1.9020542840
 H         -3.9405893277        1.9401345066        0.8815402098
 H         -3.1552569170        3.0032834680       -0.3086038652
 H         -1.9378243118        3.2356759053        1.7992003559
 H         -1.8672564781        1.4813000675        2.0120604619
 H          0.5775755741        3.0345034513        2.1779991490
 H          2.7535363496        2.8792635348        1.0361436212
 H          2.8746181462        1.9578281590       -1.2588731260
 H          0.8198749101        1.1927717101       -2.3744790803
 H         -1.4625085142        0.2858851651       -1.9849965228
 H         -1.9941775571        1.9708635050       -2.1878314338
 H         -3.5938992600       -0.3014088802       -1.9443968372
 H         -4.5755896441        1.1286161669       -1.6078426421
 H         -5.5418502788        0.1213912688        0.3053125107
 H         -6.0472079988       -1.9679118244       -0.5438336443
 H         -4.5629145689       -2.1115956256        1.2096433695
 H         -3.8357905425       -0.5817192640        1.7456216299
 H         -2.5365837726       -1.9724296541       -0.4849709954
 H          3.3034950049       -0.3574772232        1.4672830401
 H          4.1787989544       -1.2195257152       -1.2101546022
 H          5.5330719425       -1.7457376147        1.4762029552
 H          6.1500887338       -2.2729953463       -0.1170082017
 H          5.5442415674        0.8633437950       -1.2437921266
 H          4.9508752964        1.2630156283        0.3959032307
