  53
        -82.41336553
 C          0.8930099485       -1.1809923289        2.0465617926
 C         -0.2966663212       -1.3588901383        0.1427340857
 C          0.8515546485       -1.2345287402       -0.6035558204
 C          2.0554413288       -1.0715030524        0.1074294887
 C         -2.4435622473        1.2647971411        1.9106020540
 C         -1.2816695565        2.2682536566        1.9372352408
 C         -0.3658911600        2.0855157842        0.7690200437
 C          1.0152425855        2.1210375874        0.8568136915
 C          1.7821802301        2.0127330592       -0.2909726147
 C          1.1699046115        1.8524894149       -1.5228333335
 C         -0.2112392661        1.7983393931       -1.6138114274
 C         -0.9805634232        1.9254756932       -0.4704470254
 C         -2.4767544482        1.8802322904       -0.4585550124
 N         -2.8998565279        0.9363077907        0.5647414390
 C         -4.3083369934        0.6035423250        0.4862248908
 C         -4.6254954615       -0.5443128150       -0.5038539499
 O         -4.2952425455       -0.2483565232       -1.8334705351
 C         -4.0056802790       -1.8827965931       -0.0513670817
 N         -2.6125052077       -1.7943694866        0.3220750189
 C         -1.6249388055       -1.4915413424       -0.5301666538
 O         -1.7567805040       -1.3577364863       -1.7384289486
 N         -0.2841700537       -1.3448914532        1.4857569906
 N          2.0572459420       -1.0432887104        1.4437417686
 N          3.2328934842       -0.9541941595       -0.5399862794
 C          4.4820854790       -0.7239084920        0.1112703500
 C          5.3559503081        0.4129315279       -0.4498009822
 O          6.4146155572       -0.4993546972       -0.7432951758
 C          5.6557804071       -1.6287752786       -0.3079480113
 H          0.9161803016       -1.1592180914        3.1295090574
 H          0.8106078185       -1.2513868927       -1.6796545327
 H         -2.1078503924        0.3310613739        2.3794310615
 H         -3.2635601790        1.6742258484        2.5222947867
 H         -1.6888213968        3.2842471609        1.8875325517
 H         -0.7420568136        2.1725459798        2.8803090322
 H          1.4928926558        2.2400835247        1.8189366450
 H          2.8597158120        2.0551382986       -0.2199733103
 H          1.7708996219        1.7695274248       -2.4174203325
 H         -0.6912320301        1.6591079901       -2.5709363823
 H         -2.8636914268        1.5428471913       -1.4197265869
 H         -2.8789058830        2.8959807904       -0.2686642654
 H         -4.9100628338        1.4781167646        0.1883833390
 H         -4.6535548239        0.2759305987        1.4704513036
 H         -5.7192789402       -0.6674107377       -0.4935536217
 H         -3.3857163825       -0.5667960945       -1.9976739661
 H         -4.0966569940       -2.5858430990       -0.8874022305
 H         -4.5570650034       -2.2769517210        0.8029818265
 H         -2.3603170244       -1.7351088304        1.2986101946
 H          3.2164792023       -0.9477480056       -1.5485124661
 H          4.2877538074       -0.6805560309        1.1823968889
 H          4.9650649145        0.8836115626       -1.3579386085
 H          5.6627591948        1.1822535787        0.2622669144
 H          6.1546133062       -2.1737546008        0.4959603078
 H          5.4323248234       -2.3111362153       -1.1339625748
