  53
        -82.41496997
 C          0.8433990278       -1.3090466022        1.9682484461
 C         -0.2976918125       -1.4348969526        0.0290624227
 C          0.8644406860       -1.2316140675       -0.6793732776
 C          2.0437694669       -1.0555442330        0.0671889469
 C         -2.7829302894        1.8371119886        1.0963871453
 C         -1.4388113243        1.6486630232        1.7920237225
 C         -0.3014873869        1.8562961612        0.8341650375
 C          0.9891061651        2.0579063534        1.3085010280
 C          2.0470461214        2.2313965114        0.4375397084
 C          1.8208421660        2.2059910246       -0.9289090382
 C          0.5423891744        1.9989035589       -1.4094717604
 C         -0.5252483619        1.8187644657       -0.5383410546
 C         -1.9052567349        1.6042503990       -1.0943657720
 N         -2.7924743333        1.0294827562       -0.1057680701
 C         -4.1116997595        0.7281676109       -0.6175092540
 C         -4.7260682054       -0.4859949124        0.0999496320
 O         -6.0799557805       -0.6663083226       -0.2517673405
 C         -4.0050353027       -1.7907943038       -0.2786969296
 N         -2.6343012127       -1.8104389352        0.1443004165
 C         -1.6042808565       -1.5915686574       -0.6906832573
 O         -1.6849543232       -1.5468145770       -1.9045877445
 N         -0.3164931199       -1.4747376284        1.3713724999
 N          2.0156601659       -1.1036319974        1.4031033930
 N          3.2303173879       -0.8499404735       -0.5411479568
 C          4.4571123794       -0.6392660203        0.1572922878
 C          5.3226870725        0.5465601088       -0.3052472871
 O          6.3999919058       -0.3268154628       -0.6460428956
 C          5.6577602549       -1.4944918502       -0.2901835778
 H          0.8411673369       -1.3441312524        3.0512894365
 H          0.8498059417       -1.2034906843       -1.7560959967
 H         -3.5888538210        1.5162202981        1.7594198108
 H         -2.9398563886        2.9072124536        0.8633878369
 H         -1.3494407513        2.3334683498        2.6383104744
 H         -1.3795716034        0.6259255305        2.1761422653
 H          1.1608838583        2.0760718578        2.3752769757
 H          3.0444438107        2.3862637091        0.8211656901
 H          2.6403935545        2.3506205584       -1.6181200288
 H          0.3610380356        1.9717855995       -2.4745911888
 H         -1.8464175247        0.9200965777       -1.9446731624
 H         -2.2870551972        2.5776750436       -1.4674019403
 H         -4.0312372558        0.4860598881       -1.6793781802
 H         -4.7992651030        1.5910925050       -0.5203116930
 H         -4.6408242317       -0.3430292409        1.1908713656
 H         -6.5479710056        0.1694870955       -0.1457212735
 H         -4.0180330939       -1.9045865395       -1.3648135989
 H         -4.5517776520       -2.6244317416        0.1715390443
 H         -2.4186069233       -1.7374572620        1.1293895380
 H          3.2407870224       -0.7918827032       -1.5478828310
 H          4.2328667234       -0.6698894501        1.2228611277
 H          4.9389345566        1.0788639568       -1.1807812331
 H          5.6073499110        1.2641607556        0.4672299530
 H          6.1532760301       -2.0731879761        0.4920506181
 H          5.4652585427       -2.1340178224       -1.1570680974
