  53
        -82.41047162
 C          1.0940417168       -1.4550831469        1.9643761078
 C         -0.2469144308       -1.4863209856        0.1545105489
 C          0.8341967458       -1.2597787664       -0.6656349700
 C          2.0862383529       -1.1179180782       -0.0404118878
 C         -2.1272511643        1.4007072884       -1.7943145103
 C         -0.9217406764        2.3436220290       -1.6694588405
 C         -0.1387920068        2.1009177350       -0.4191336061
 C          1.2448017360        2.1139037051       -0.3618132116
 C          1.8901283401        1.9517450777        0.8523528564
 C          1.1537285075        1.7629898692        2.0088613448
 C         -0.2296031892        1.7315810556        1.9543410468
 C         -0.8781929989        1.9107830023        0.7448947570
 C         -2.3682411357        1.8884051288        0.5853953659
 N         -2.6961656233        0.9937442963       -0.5115728467
 C         -4.1079212186        0.6932689298       -0.6231119610
 C         -4.6108117745       -0.3178702645        0.4212047371
 O         -6.0156514330       -0.4133732340        0.3712150832
 C         -3.9721795354       -1.7084236552        0.2250183510
 N         -2.5692600719       -1.7228642184        0.5214856388
 C         -1.6186382232       -1.6501348797       -0.4260392423
 O         -1.8139349499       -1.7537549966       -1.6233419521
 N         -0.1249952221       -1.5729769805        1.4885962804
 N          2.2033167722       -1.2399686757        1.2852736208
 N          3.2001120318       -0.8703534841       -0.7621693561
 C          4.4914197052       -0.6641730429       -0.1901280210
 C          5.2373848391        0.6149762457       -0.6154171965
 O          6.2951218339       -0.1522164477       -1.1917412282
 C          5.6640367648       -1.3932533944       -0.8708927929
 H          1.2070533930       -1.5460163754        3.0377851066
 H          0.7075335278       -1.1933733102       -1.7333881457
 H         -2.8843168078        1.9028545663       -2.4181443430
 H         -1.8277865333        0.4797560758       -2.3056915496
 H         -0.2916623404        2.2464768473       -2.5544070044
 H         -1.2836842685        3.3775706823       -1.6358121399
 H          1.8180762374        2.2627353315       -1.2665767264
 H          2.9692043810        1.9677629436        0.8965160977
 H          1.6596514602        1.6304833113        2.9532742571
 H         -0.8043550459        1.5730816070        2.8554623699
 H         -2.7434320500        2.9159767351        0.4050714914
 H         -2.8399211284        1.5188941440        1.4971560900
 H         -4.2748296011        0.2534810066       -1.6111318445
 H         -4.7319963211        1.6039089250       -0.5436960564
 H         -4.3937028022        0.0354237494        1.4341162488
 H         -6.2726838582       -0.7088646476       -0.5103748806
 H         -4.0805197473       -2.0190062122       -0.8187791676
 H         -4.4942099970       -2.4224028280        0.8708153343
 H         -2.2539416458       -1.5716638067        1.4698522140
 H          3.1009007820       -0.7577085196       -1.7595033208
 H          4.3986099006       -0.8191972962        0.8841784639
 H          4.7192488378        1.2214105123       -1.3649762054
 H          5.5926852332        1.2551856481        0.1952454526
 H          6.2850051866       -2.0128153799       -0.2205139727
 H          5.3939394557       -1.9567598284       -1.7692522435
