  53
        -82.41371988
 C          0.9453391920       -1.5834865075        2.0732554632
 C         -0.4147812643       -1.5028742509        0.2798291596
 C          0.6501431516       -1.1812099727       -0.5298900451
 C          1.9096633989       -1.0759862145        0.0892361972
 C         -2.4345012134        1.4260039352       -1.2420658865
 C         -1.5685751013        2.6913315069       -1.2396597420
 C         -0.3424118751        2.4389158321       -0.4251666703
 C          0.9471863567        2.7403298242       -0.8288213482
 C          2.0139939147        2.4832890822        0.0160191982
 C          1.7949916618        1.9223262970        1.2626831262
 C          0.5088439218        1.6022967977        1.6629711198
 C         -0.5598049655        1.8504126228        0.8182747366
 C         -1.9798990887        1.5448187722        1.1775005635
 N         -2.6747007606        0.8703750561        0.0884888652
 C         -4.0784960904        0.6596059515        0.3916178014
 C         -4.6840800247       -0.6022874154       -0.2712811268
 O         -4.5597567467       -0.6208854835       -1.6632857632
 C         -4.1422471052       -1.9046833130        0.3645670840
 N         -2.7226974796       -1.8798852129        0.6336395848
 C         -1.7872867190       -1.6439547992       -0.2969861306
 O         -1.9862137434       -1.5936088723       -1.5032310934
 N         -0.2765509073       -1.6963734617        1.6013431885
 N          2.0422280017       -1.2964280075        1.4013405299
 N          3.0116051207       -0.7644513842       -0.6228932653
 C          4.3184754878       -0.6516636274       -0.0600685110
 C          5.1744892032        0.5331274059       -0.5389615886
 O          6.1794293515       -0.3489698679       -1.0398444023
 C          5.4263191989       -1.5134501013       -0.6969069261
 H          1.0724383386       -1.7507317637        3.1362679431
 H          0.5099778691       -1.0246785079       -1.5863931255
 H         -3.3905378401        1.6399459563       -1.7303271981
 H         -1.9215021699        0.6620073844       -1.8385890206
 H         -1.3210322335        2.9658945318       -2.2654272484
 H         -2.1319263840        3.5175851242       -0.7929892504
 H          1.1153658095        3.1877569444       -1.7983733199
 H          3.0191145450        2.7304829694       -0.2933004584
 H          2.6272146281        1.7265315593        1.9219655417
 H          0.3372591453        1.1594646592        2.6336275781
 H         -2.4836428517        2.4942592779        1.4483658140
 H         -2.0110578794        0.8904438365        2.0547490397
 H         -4.6892128389        1.5259774028        0.0847898502
 H         -4.1898322808        0.5396973752        1.4726491178
 H         -5.7661279147       -0.5685418312       -0.0787779284
 H         -3.6545733514       -0.9270099180       -1.8704219143
 H         -4.3612999330       -2.7218694741       -0.3328971146
 H         -4.6560429011       -2.0999500142        1.3060667818
 H         -2.3898679940       -1.8364101505        1.5864059288
 H          2.9062526132       -0.6075042422       -1.6135439115
 H          4.2176100188       -0.7543826118        1.0196650882
 H          4.7216763326        1.1253829404       -1.3404701943
 H          5.5599127750        1.1958840780        0.2387112475
 H          5.9735501501       -2.1717347671       -0.0193215514
 H          5.1152355934       -2.0726196561       -1.5847339878
