  53
        -82.41200211
 C          1.7012109493       -0.0493596148        0.9146827480
 C          0.2269804181       -1.4745823400       -0.0238574090
 C          1.2551837740       -2.1825646940       -0.6040060841
 C          2.5625806759       -1.7280278887       -0.3415917110
 C         -3.8732590700        2.1870080327        0.0329539501
 C         -3.5263570663        2.7187806920        1.4206218869
 C         -2.1165994066        3.2368940235        1.4698863121
 C         -1.7058095397        4.0594606488        2.5118999683
 C         -0.4050513184        4.5201661052        2.5813680529
 C          0.5050379530        4.1584913308        1.6015107689
 C          0.1044279142        3.3415362483        0.5618557377
 C         -1.2022824341        2.8755315657        0.4862801704
 C         -1.6136607247        2.0080481566       -0.6710583132
 N         -2.8284608208        1.2731185802       -0.3846071782
 C         -3.2180995731        0.3802049420       -1.4575269208
 C         -4.0449226188       -0.8152825304       -0.9339645900
 O         -4.0837603461       -1.8503992158       -1.8767014434
 C         -3.4904116112       -1.3063014951        0.4254371474
 N         -2.0538682253       -1.2053500618        0.5331354301
 C         -1.2010246921       -1.8611997038       -0.2624464407
 O         -1.5152693607       -2.6971951331       -1.1000907123
 N          0.4447681900       -0.3967887712        0.7467169639
 N          2.7674455327       -0.6474431097        0.4197211369
 N          3.6356130962       -2.3637840722       -0.8555724705
 C          4.9881396254       -1.9763800402       -0.6093045929
 C          5.9191914125       -1.9206170596       -1.8337456677
 O          6.7717570209       -2.9206902613       -1.2742595227
 C          5.9431464711       -3.0820057027       -0.1220781138
 H          1.8830026213        0.8265399830        1.5248963967
 H          1.0516040184       -3.0405261013       -1.2235234147
 H         -4.8242760101        1.6530161327        0.0667834121
 H         -3.9792393151        3.0289306627       -0.6747024321
 H         -4.2270259085        3.5058335672        1.7076877242
 H         -3.6237152685        1.9069308162        2.1479204387
 H         -2.4191572297        4.3390598117        3.2745608854
 H         -0.1002648757        5.1596509002        3.3965997689
 H          1.5241668756        4.5129194128        1.6492884893
 H          0.8107039533        3.0557208693       -0.2049562906
 H         -0.8137182292        1.2917074539       -0.8806317450
 H         -1.7290873848        2.6517305894       -1.5673104109
 H         -2.3123229838       -0.0253430631       -1.9170640183
 H         -3.7858291627        0.8900166779       -2.2519340865
 H         -5.0906306882       -0.5183990945       -0.7923484306
 H         -3.2226709145       -2.3099148585       -1.8488853136
 H         -3.7825059233       -2.3559945594        0.5376940912
 H         -3.9221988718       -0.7244988396        1.2376483236
 H         -1.6619129575       -0.4174978333        1.0331506231
 H          3.4749549291       -3.1849888989       -1.4192811621
 H          4.9630650684       -1.0761907277        0.0037556445
 H          5.4630750975       -2.2533541661       -2.7714648225
 H          6.4440174441       -0.9766017261       -1.9943663551
 H          6.4826549708       -2.8752483510        0.8044835413
 H          5.5006768144       -4.0821308516       -0.0760551705
